/*---------------------------------------------------------------------------*\
  =========                 |
  \\      /  F ield         | OpenFOAM: The Open Source CFD Toolbox
   \\    /   O peration     | Website:  https://openfoam.org
    \\  /    A nd           | Version:  8
     \\/     M anipulation  |
\*---------------------------------------------------------------------------*/
Build  : 8-56290025169b
Exec   : fireFoam -parallel
Date   : Dec 16 2020
Time   : 17:47:57
Host   : "chaitanya-VirtualBox"
PID    : 5429
I/O    : uncollated
Case   : /home/chaitanya/OpenFOAM/chaitanya8/smallPoolFire3D_expt
nProcs : 4
Slaves : 
3
(
"chaitanya-VirtualBox.5430"
"chaitanya-VirtualBox.5431"
"chaitanya-VirtualBox.5432"
)

Pstream initialized with:
    floatTransfer      : 0
    nProcsSimpleSum    : 0
    commsType          : nonBlocking
    polling iterations : 0
sigFpe : Enabling floating point exception trapping (FOAM_SIGFPE).
fileModificationChecking : Monitoring run-time modified files using timeStampMaster (fileModificationSkew 10)
allowSystemOperations : Allowing user-supplied system call operations

// * * * * * * * * * * * * * * * * * * * * * * * * * * * * * * * * * * * * * //
Create time

Create mesh for time = 0


PIMPLE: No convergence criteria found


PIMPLE: Operating solver in transient mode with 1 outer corrector
PIMPLE: Operating solver in PISO mode


Reading thermophysical properties

Selecting thermodynamics package 
{
    type            hePsiThermo;
    mixture         multiComponentMixture;
    transport       sutherland;
    thermo          janaf;
    energy          sensibleEnthalpy;
    equationOfState perfectGas;
    specie          specie;
}

Creating component thermo properties:
    multi-component carrier - 5 species
    no liquid components
    no solid components
Creating field rho


Reading field U

Reading/calculating face flux field phi

No MRF models present

Creating turbulence model

Selecting turbulence model type LES
Selecting LES turbulence model kEqn
Selecting LES delta type cubeRootVol
kEqnCoeffs
{
    ck              0.07;
    Ce              1.048;
    Ck              0.094;
}

Creating thermophysical transport model

Selecting thermophysical transport type LES
Selecting default LES thermophysical transport model eddyDiffusivity
Creating combustion model

Selecting combustion model infinitelyFastChemistry
Fuel heat of combustion :5.00312e+07
stoichiometric air-fuel ratio :17.0854
stoichiometric oxygen-fuel ratio :3.98918
Maximum products mass concentrations:
    H2O: 0.124183
    CO2: 0.151685
    N2: 0.724132
Combustion mode: explicit

Reading g

Reading hRef
Calculating field g.h


Reading pRef
GAMG:  Solving for ph_rgh, Initial residual = 1, Final residual = 0.0524283, No Iterations 3
Hydrostatic pressure variation 4.18857
GAMG:  Solving for ph_rgh, Initial residual = 0.000436586, Final residual = 2.81093e-05, No Iterations 2
Hydrostatic pressure variation 4.18834
GAMG:  Solving for ph_rgh, Initial residual = 2.80199e-05, Final residual = 6.89057e-07, No Iterations 3
Hydrostatic pressure variation 4.18836
GAMG:  Solving for ph_rgh, Initial residual = 6.88641e-07, Final residual = 6.88641e-07, No Iterations 0
Hydrostatic pressure variation 4.18836
GAMG:  Solving for ph_rgh, Initial residual = 6.88641e-07, Final residual = 6.88641e-07, No Iterations 0
Hydrostatic pressure variation 4.18836
Creating field dpdt

Creating field kinetic energy K


Constructing reacting cloud
Constructing particle injection models
Selecting injection model none

Constructing surface film model
Selecting surfaceFilmModel none
Selecting radiationModel fvDOM
Selecting absorptionEmissionModel greyMeanCombustion
Selecting scatterModel none
Selecting soot model none
fvDOM: Created 16 rays with average directions (dAve) and solid angles (omega)
    Ray I0: dAve = (0.230038 0.55536 0.392699), omega = 0.785398
    Ray I1: dAve = (0.55536 0.230038 0.392699), omega = 0.785398
    Ray I2: dAve = (0.55536 -0.230038 0.392699), omega = 0.785398
    Ray I3: dAve = (0.230038 -0.55536 0.392699), omega = 0.785398
    Ray I4: dAve = (-0.230038 -0.55536 0.392699), omega = 0.785398
    Ray I5: dAve = (-0.55536 -0.230038 0.392699), omega = 0.785398
    Ray I6: dAve = (-0.55536 0.230038 0.392699), omega = 0.785398
    Ray I7: dAve = (-0.230038 0.55536 0.392699), omega = 0.785398
    Ray I8: dAve = (0.230038 0.55536 -0.392699), omega = 0.785398
    Ray I9: dAve = (0.55536 0.230038 -0.392699), omega = 0.785398
    Ray I10: dAve = (0.55536 -0.230038 -0.392699), omega = 0.785398
    Ray I11: dAve = (0.230038 -0.55536 -0.392699), omega = 0.785398
    Ray I12: dAve = (-0.230038 -0.55536 -0.392699), omega = 0.785398
    Ray I13: dAve = (-0.55536 -0.230038 -0.392699), omega = 0.785398
    Ray I14: dAve = (-0.55536 0.230038 -0.392699), omega = 0.785398
    Ray I15: dAve = (-0.230038 0.55536 -0.392699), omega = 0.785398

No finite volume options present
Courant Number mean: 2.06363e-05 max: 0.00149983

Starting time loop

Courant Number mean: 2.06363e-05 max: 0.00149983
deltaT = 0.00142857
Time = 0.00142857

diagonal:  Solving for rho, Initial residual = 0, Final residual = 0, No Iterations 0
DILUPBiCGStab:  Solving for Ux, Initial residual = 1, Final residual = 1.30875e-09, No Iterations 1
DILUPBiCGStab:  Solving for Uy, Initial residual = 1, Final residual = 3.62546e-09, No Iterations 1
DILUPBiCGStab:  Solving for Uz, Initial residual = 1, Final residual = 5.41795e-10, No Iterations 1
Radiation solver iter: 0
GAMG:  Solving for ILambda_0_0, Initial residual = 1, Final residual = 5.05119e-15, No Iterations 1
GAMG:  Solving for ILambda_1_0, Initial residual = 1, Final residual = 4.85259e-15, No Iterations 1
GAMG:  Solving for ILambda_2_0, Initial residual = 1, Final residual = 5.36945e-15, No Iterations 1
GAMG:  Solving for ILambda_3_0, Initial residual = 1, Final residual = 5.22428e-15, No Iterations 1
GAMG:  Solving for ILambda_4_0, Initial residual = 1, Final residual = 5.21704e-15, No Iterations 1
GAMG:  Solving for ILambda_5_0, Initial residual = 1, Final residual = 5.42834e-15, No Iterations 1
GAMG:  Solving for ILambda_6_0, Initial residual = 1, Final residual = 5.18309e-15, No Iterations 1
GAMG:  Solving for ILambda_7_0, Initial residual = 1, Final residual = 5.37786e-15, No Iterations 1
GAMG:  Solving for ILambda_8_0, Initial residual = 1, Final residual = 5.01569e-15, No Iterations 1
GAMG:  Solving for ILambda_9_0, Initial residual = 1, Final residual = 5.22974e-15, No Iterations 1
GAMG:  Solving for ILambda_10_0, Initial residual = 1, Final residual = 5.12157e-15, No Iterations 1
GAMG:  Solving for ILambda_11_0, Initial residual = 1, Final residual = 5.04894e-15, No Iterations 1
GAMG:  Solving for ILambda_12_0, Initial residual = 1, Final residual = 4.83591e-15, No Iterations 1
GAMG:  Solving for ILambda_13_0, Initial residual = 1, Final residual = 4.59941e-15, No Iterations 1
GAMG:  Solving for ILambda_14_0, Initial residual = 1, Final residual = 5.01686e-15, No Iterations 1
GAMG:  Solving for ILambda_15_0, Initial residual = 1, Final residual = 5.13305e-15, No Iterations 1
DILUPBiCGStab:  Solving for O2, Initial residual = 1, Final residual = 1.91072e-09, No Iterations 1
DILUPBiCGStab:  Solving for H2O, Initial residual = 0, Final residual = 0, No Iterations 0
DILUPBiCGStab:  Solving for CH4, Initial residual = 1, Final residual = 1.91072e-09, No Iterations 1
DILUPBiCGStab:  Solving for CO2, Initial residual = 0, Final residual = 0, No Iterations 0
DILUPBiCGStab:  Solving for h, Initial residual = 1, Final residual = 1.9107e-09, No Iterations 1
min/max(T) = 300, 300
GAMG:  Solving for p_rgh, Initial residual = 0.7009, Final residual = 0.0493765, No Iterations 2
diagonal:  Solving for rho, Initial residual = 0, Final residual = 0, No Iterations 0
time step continuity errors : sum local = 4.30387e-06, global = 2.95418e-06, cumulative = 2.95418e-06
GAMG:  Solving for p_rgh, Initial residual = 0.0023055, Final residual = 3.01648e-07, No Iterations 7
diagonal:  Solving for rho, Initial residual = 0, Final residual = 0, No Iterations 0
time step continuity errors : sum local = 5.59053e-10, global = 2.84327e-10, cumulative = 2.95446e-06
DILUPBiCGStab:  Solving for k, Initial residual = 1, Final residual = 2.14957e-09, No Iterations 1
ExecutionTime = 2.08 s  ClockTime = 2 s

Courant Number mean: 0.00106725 max: 0.011683
deltaT = 0.00201166
Time = 0.00344023

diagonal:  Solving for rho, Initial residual = 0, Final residual = 0, No Iterations 0
DILUPBiCGStab:  Solving for Ux, Initial residual = 0.413099, Final residual = 9.2264e-10, No Iterations 1
DILUPBiCGStab:  Solving for Uy, Initial residual = 0.431382, Final residual = 7.2797e-10, No Iterations 1
DILUPBiCGStab:  Solving for Uz, Initial residual = 0.413099, Final residual = 3.00496e-10, No Iterations 1
DILUPBiCGStab:  Solving for O2, Initial residual = 0.555929, Final residual = 6.24927e-09, No Iterations 1
DILUPBiCGStab:  Solving for H2O, Initial residual = 1, Final residual = 1.12427e-08, No Iterations 1
DILUPBiCGStab:  Solving for CH4, Initial residual = 0.255956, Final residual = 2.87618e-09, No Iterations 1
DILUPBiCGStab:  Solving for CO2, Initial residual = 1, Final residual = 1.12427e-08, No Iterations 1
DILUPBiCGStab:  Solving for h, Initial residual = 0.999463, Final residual = 1.1235e-08, No Iterations 1
min/max(T) = 300, 307.679
GAMG:  Solving for p_rgh, Initial residual = 0.0603587, Final residual = 0.00559233, No Iterations 2
diagonal:  Solving for rho, Initial residual = 0, Final residual = 0, No Iterations 0
time step continuity errors : sum local = 2.20207e-05, global = 6.93588e-06, cumulative = 9.89034e-06
GAMG:  Solving for p_rgh, Initial residual = 0.00430798, Final residual = 9.09525e-07, No Iterations 8
diagonal:  Solving for rho, Initial residual = 0, Final residual = 0, No Iterations 0
time step continuity errors : sum local = 4.56065e-09, global = 1.91831e-09, cumulative = 9.89226e-06
DILUPBiCGStab:  Solving for k, Initial residual = 0.923068, Final residual = 1.09594e-08, No Iterations 1
ExecutionTime = 2.87 s  ClockTime = 3 s

Courant Number mean: 0.00439998 max: 0.0540227
deltaT = 0.00283999
Time = 0.00628023

diagonal:  Solving for rho, Initial residual = 0, Final residual = 0, No Iterations 0
DILUPBiCGStab:  Solving for Ux, Initial residual = 0.323612, Final residual = 6.66602e-09, No Iterations 1
DILUPBiCGStab:  Solving for Uy, Initial residual = 0.326799, Final residual = 9.44768e-09, No Iterations 1
DILUPBiCGStab:  Solving for Uz, Initial residual = 0.352823, Final residual = 3.97069e-09, No Iterations 1
DILUPBiCGStab:  Solving for O2, Initial residual = 0.298519, Final residual = 3.60283e-08, No Iterations 1
DILUPBiCGStab:  Solving for H2O, Initial residual = 0.365039, Final residual = 4.42584e-08, No Iterations 1
DILUPBiCGStab:  Solving for CH4, Initial residual = 0.165007, Final residual = 1.95117e-08, No Iterations 1
DILUPBiCGStab:  Solving for CO2, Initial residual = 0.365039, Final residual = 4.42584e-08, No Iterations 1
DILUPBiCGStab:  Solving for h, Initial residual = 0.370144, Final residual = 4.44948e-08, No Iterations 1
min/max(T) = 299.996, 325.1
GAMG:  Solving for p_rgh, Initial residual = 0.0113066, Final residual = 0.00038782, No Iterations 3
diagonal:  Solving for rho, Initial residual = 0, Final residual = 0, No Iterations 0
time step continuity errors : sum local = 4.29866e-06, global = -2.55073e-06, cumulative = 7.34153e-06
GAMG:  Solving for p_rgh, Initial residual = 0.00103284, Final residual = 9.08997e-07, No Iterations 6
diagonal:  Solving for rho, Initial residual = 0, Final residual = 0, No Iterations 0
time step continuity errors : sum local = 5.08639e-09, global = -2.66706e-09, cumulative = 7.33886e-06
DILUPBiCGStab:  Solving for k, Initial residual = 0.72018, Final residual = 6.35703e-08, No Iterations 1
ExecutionTime = 3.63 s  ClockTime = 4 s

Courant Number mean: 0.0088534 max: 0.117016
deltaT = 0.00390499
Time = 0.0101852

diagonal:  Solving for rho, Initial residual = 0, Final residual = 0, No Iterations 0
DILUPBiCGStab:  Solving for Ux, Initial residual = 0.173057, Final residual = 3.07604e-08, No Iterations 1
DILUPBiCGStab:  Solving for Uy, Initial residual = 0.167472, Final residual = 4.03423e-08, No Iterations 1
DILUPBiCGStab:  Solving for Uz, Initial residual = 0.185167, Final residual = 2.19927e-08, No Iterations 1
DILUPBiCGStab:  Solving for O2, Initial residual = 0.211186, Final residual = 2.83022e-07, No Iterations 1
DILUPBiCGStab:  Solving for H2O, Initial residual = 0.234495, Final residual = 3.14478e-07, No Iterations 1
DILUPBiCGStab:  Solving for CH4, Initial residual = 0.136522, Final residual = 1.82261e-07, No Iterations 1
DILUPBiCGStab:  Solving for CO2, Initial residual = 0.234495, Final residual = 3.14478e-07, No Iterations 1
DILUPBiCGStab:  Solving for h, Initial residual = 0.235444, Final residual = 3.13767e-07, No Iterations 1
min/max(T) = 299.994, 354.141
GAMG:  Solving for p_rgh, Initial residual = 0.0181465, Final residual = 0.00154695, No Iterations 2
diagonal:  Solving for rho, Initial residual = 0, Final residual = 0, No Iterations 0
time step continuity errors : sum local = 1.57957e-05, global = -9.99592e-06, cumulative = -2.65706e-06
GAMG:  Solving for p_rgh, Initial residual = 0.0041475, Final residual = 5.79504e-07, No Iterations 8
diagonal:  Solving for rho, Initial residual = 0, Final residual = 0, No Iterations 0
time step continuity errors : sum local = 2.65229e-09, global = -1.31345e-09, cumulative = -2.65837e-06
DILUPBiCGStab:  Solving for k, Initial residual = 0.496391, Final residual = 2.25669e-07, No Iterations 1
ExecutionTime = 4.4 s  ClockTime = 5 s

Courant Number mean: 0.0137519 max: 0.196931
deltaT = 0.00528322
Time = 0.0154684

diagonal:  Solving for rho, Initial residual = 0, Final residual = 0, No Iterations 0
DILUPBiCGStab:  Solving for Ux, Initial residual = 0.0664304, Final residual = 6.88519e-08, No Iterations 1
DILUPBiCGStab:  Solving for Uy, Initial residual = 0.089255, Final residual = 1.58346e-07, No Iterations 1
DILUPBiCGStab:  Solving for Uz, Initial residual = 0.0772888, Final residual = 5.15333e-08, No Iterations 1
DILUPBiCGStab:  Solving for O2, Initial residual = 0.171832, Final residual = 2.4012e-09, No Iterations 2
DILUPBiCGStab:  Solving for H2O, Initial residual = 0.183171, Final residual = 2.535e-09, No Iterations 2
DILUPBiCGStab:  Solving for CH4, Initial residual = 0.123344, Final residual = 8.91875e-07, No Iterations 1
DILUPBiCGStab:  Solving for CO2, Initial residual = 0.183171, Final residual = 2.535e-09, No Iterations 2
DILUPBiCGStab:  Solving for h, Initial residual = 0.183473, Final residual = 2.53336e-09, No Iterations 2
min/max(T) = 299.993, 397.99
GAMG:  Solving for p_rgh, Initial residual = 0.0466552, Final residual = 0.004497, No Iterations 1
diagonal:  Solving for rho, Initial residual = 0, Final residual = 0, No Iterations 0
time step continuity errors : sum local = 3.35657e-05, global = -1.99031e-05, cumulative = -2.25615e-05
GAMG:  Solving for p_rgh, Initial residual = 0.0068714, Final residual = 6.94177e-07, No Iterations 8
diagonal:  Solving for rho, Initial residual = 0, Final residual = 0, No Iterations 0
time step continuity errors : sum local = 4.98467e-09, global = -2.76302e-09, cumulative = -2.25643e-05
DILUPBiCGStab:  Solving for k, Initial residual = 0.373438, Final residual = 6.71389e-07, No Iterations 1
ExecutionTime = 5.17 s  ClockTime = 6 s

Courant Number mean: 0.020238 max: 0.389299
deltaT = 0.00650243
Time = 0.0219709

diagonal:  Solving for rho, Initial residual = 0, Final residual = 0, No Iterations 0
DILUPBiCGStab:  Solving for Ux, Initial residual = 0.046786, Final residual = 1.53724e-07, No Iterations 1
DILUPBiCGStab:  Solving for Uy, Initial residual = 0.0800885, Final residual = 5.6816e-07, No Iterations 1
DILUPBiCGStab:  Solving for Uz, Initial residual = 0.0534084, Final residual = 1.65225e-07, No Iterations 1
DILUPBiCGStab:  Solving for O2, Initial residual = 0.143425, Final residual = 1.04506e-08, No Iterations 2
DILUPBiCGStab:  Solving for H2O, Initial residual = 0.151464, Final residual = 1.08808e-08, No Iterations 2
DILUPBiCGStab:  Solving for CH4, Initial residual = 0.102618, Final residual = 8.31263e-09, No Iterations 2
DILUPBiCGStab:  Solving for CO2, Initial residual = 0.151464, Final residual = 1.08808e-08, No Iterations 2
DILUPBiCGStab:  Solving for h, Initial residual = 0.151479, Final residual = 1.08785e-08, No Iterations 2
min/max(T) = 299.992, 461.522
GAMG:  Solving for p_rgh, Initial residual = 0.0803506, Final residual = 0.00652208, No Iterations 1
diagonal:  Solving for rho, Initial residual = 0, Final residual = 0, No Iterations 0
time step continuity errors : sum local = 5.98921e-05, global = 1.25609e-05, cumulative = -1.00034e-05
GAMG:  Solving for p_rgh, Initial residual = 0.0103822, Final residual = 6.10897e-07, No Iterations 8
diagonal:  Solving for rho, Initial residual = 0, Final residual = 0, No Iterations 0
time step continuity errors : sum local = 6.05456e-09, global = 3.598e-09, cumulative = -9.99982e-06
DILUPBiCGStab:  Solving for k, Initial residual = 0.311512, Final residual = 3.45256e-08, No Iterations 2
ExecutionTime = 5.94 s  ClockTime = 6 s

Courant Number mean: 0.0278137 max: 0.877435
deltaT = 0.00288997
Time = 0.0248608

diagonal:  Solving for rho, Initial residual = 0, Final residual = 0, No Iterations 0
DILUPBiCGStab:  Solving for Ux, Initial residual = 0.0232542, Final residual = 1.80507e-08, No Iterations 1
DILUPBiCGStab:  Solving for Uy, Initial residual = 0.0268832, Final residual = 1.52193e-08, No Iterations 1
DILUPBiCGStab:  Solving for Uz, Initial residual = 0.0236499, Final residual = 7.67358e-09, No Iterations 1
DILUPBiCGStab:  Solving for O2, Initial residual = 0.104994, Final residual = 1.3375e-07, No Iterations 1
DILUPBiCGStab:  Solving for H2O, Initial residual = 0.119992, Final residual = 1.52868e-07, No Iterations 1
DILUPBiCGStab:  Solving for CH4, Initial residual = 0.0093101, Final residual = 1.11355e-08, No Iterations 1
DILUPBiCGStab:  Solving for CO2, Initial residual = 0.119992, Final residual = 1.52868e-07, No Iterations 1
DILUPBiCGStab:  Solving for h, Initial residual = 0.119987, Final residual = 1.52848e-07, No Iterations 1
min/max(T) = 299.993, 563.81
GAMG:  Solving for p_rgh, Initial residual = 0.204497, Final residual = 0.00801186, No Iterations 3
diagonal:  Solving for rho, Initial residual = 0, Final residual = 0, No Iterations 0
time step continuity errors : sum local = 1.96835e-05, global = 1.17018e-05, cumulative = 1.70203e-06
GAMG:  Solving for p_rgh, Initial residual = 0.00175449, Final residual = 3.92915e-07, No Iterations 7
diagonal:  Solving for rho, Initial residual = 0, Final residual = 0, No Iterations 0
time step continuity errors : sum local = 9.7275e-09, global = 4.54282e-09, cumulative = 1.70657e-06
DILUPBiCGStab:  Solving for k, Initial residual = 0.291049, Final residual = 2.23079e-08, No Iterations 2
ExecutionTime = 6.7 s  ClockTime = 7 s

Courant Number mean: 0.0261209 max: 0.660273
deltaT = 0.0023481
Time = 0.0272089

diagonal:  Solving for rho, Initial residual = 0, Final residual = 0, No Iterations 0
DILUPBiCGStab:  Solving for Ux, Initial residual = 0.175283, Final residual = 6.64209e-07, No Iterations 1
DILUPBiCGStab:  Solving for Uy, Initial residual = 0.176515, Final residual = 6.04092e-07, No Iterations 1
DILUPBiCGStab:  Solving for Uz, Initial residual = 0.183068, Final residual = 4.9559e-07, No Iterations 1
DILUPBiCGStab:  Solving for O2, Initial residual = 0.0778898, Final residual = 6.83776e-09, No Iterations 2
DILUPBiCGStab:  Solving for H2O, Initial residual = 0.0833866, Final residual = 7.38502e-09, No Iterations 2
DILUPBiCGStab:  Solving for CH4, Initial residual = 0.0243445, Final residual = 3.94663e-07, No Iterations 1
DILUPBiCGStab:  Solving for CO2, Initial residual = 0.0833866, Final residual = 7.38502e-09, No Iterations 2
DILUPBiCGStab:  Solving for h, Initial residual = 0.0838632, Final residual = 7.39165e-09, No Iterations 2
min/max(T) = 299.997, 654.283
GAMG:  Solving for p_rgh, Initial residual = 0.0241869, Final residual = 0.000864954, No Iterations 2
diagonal:  Solving for rho, Initial residual = 0, Final residual = 0, No Iterations 0
time step continuity errors : sum local = 1.44124e-05, global = -6.18427e-06, cumulative = -4.4777e-06
GAMG:  Solving for p_rgh, Initial residual = 0.00256998, Final residual = 3.80168e-07, No Iterations 7
diagonal:  Solving for rho, Initial residual = 0, Final residual = 0, No Iterations 0
time step continuity errors : sum local = 5.51506e-09, global = -2.81198e-09, cumulative = -4.48051e-06
DILUPBiCGStab:  Solving for k, Initial residual = 0.201286, Final residual = 1.66411e-08, No Iterations 2
ExecutionTime = 7.46 s  ClockTime = 8 s

Courant Number mean: 0.0281901 max: 0.645341
deltaT = 0.00196733
Time = 0.0291763

diagonal:  Solving for rho, Initial residual = 0, Final residual = 0, No Iterations 0
DILUPBiCGStab:  Solving for Ux, Initial residual = 0.100236, Final residual = 3.30535e-07, No Iterations 1
DILUPBiCGStab:  Solving for Uy, Initial residual = 0.0896044, Final residual = 2.17823e-07, No Iterations 1
DILUPBiCGStab:  Solving for Uz, Initial residual = 0.0979812, Final residual = 1.85605e-07, No Iterations 1
DILUPBiCGStab:  Solving for O2, Initial residual = 0.0595323, Final residual = 6.52253e-09, No Iterations 2
DILUPBiCGStab:  Solving for H2O, Initial residual = 0.0631824, Final residual = 6.9505e-09, No Iterations 2
DILUPBiCGStab:  Solving for CH4, Initial residual = 0.0132566, Final residual = 2.6004e-07, No Iterations 1
DILUPBiCGStab:  Solving for CO2, Initial residual = 0.0631824, Final residual = 6.9505e-09, No Iterations 2
DILUPBiCGStab:  Solving for h, Initial residual = 0.0631813, Final residual = 6.94631e-09, No Iterations 2
min/max(T) = 299.996, 751.815
GAMG:  Solving for p_rgh, Initial residual = 0.0118575, Final residual = 0.00062005, No Iterations 2
diagonal:  Solving for rho, Initial residual = 0, Final residual = 0, No Iterations 0
time step continuity errors : sum local = 6.12783e-06, global = -3.55738e-06, cumulative = -8.03789e-06
GAMG:  Solving for p_rgh, Initial residual = 0.00124155, Final residual = 9.3157e-07, No Iterations 6
diagonal:  Solving for rho, Initial residual = 0, Final residual = 0, No Iterations 0
time step continuity errors : sum local = 6.72614e-09, global = -2.94745e-09, cumulative = -8.04083e-06
DILUPBiCGStab:  Solving for k, Initial residual = 0.143574, Final residual = 1.02267e-08, No Iterations 2
ExecutionTime = 8.22 s  ClockTime = 9 s

Courant Number mean: 0.0271399 max: 0.609948
deltaT = 0.00186378
Time = 0.03104

diagonal:  Solving for rho, Initial residual = 0, Final residual = 0, No Iterations 0
DILUPBiCGStab:  Solving for Ux, Initial residual = 0.0594232, Final residual = 2.8213e-07, No Iterations 1
DILUPBiCGStab:  Solving for Uy, Initial residual = 0.0561183, Final residual = 2.27251e-07, No Iterations 1
DILUPBiCGStab:  Solving for Uz, Initial residual = 0.0588391, Final residual = 1.5216e-07, No Iterations 1
Radiation solver iter: 0
GAMG:  Solving for ILambda_0_0, Initial residual = 1, Final residual = 0.0236237, No Iterations 1
GAMG:  Solving for ILambda_1_0, Initial residual = 1, Final residual = 0.000627031, No Iterations 1
GAMG:  Solving for ILambda_2_0, Initial residual = 1, Final residual = 0.000954586, No Iterations 1
GAMG:  Solving for ILambda_3_0, Initial residual = 1, Final residual = 0.000276267, No Iterations 1
GAMG:  Solving for ILambda_4_0, Initial residual = 1, Final residual = 0.0135678, No Iterations 1
GAMG:  Solving for ILambda_5_0, Initial residual = 1, Final residual = 0.132802, No Iterations 1
GAMG:  Solving for ILambda_6_0, Initial residual = 1, Final residual = 0.470088, No Iterations 1
GAMG:  Solving for ILambda_7_0, Initial residual = 1, Final residual = 0.396331, No Iterations 1
GAMG:  Solving for ILambda_8_0, Initial residual = 1, Final residual = 0.72923, No Iterations 1
GAMG:  Solving for ILambda_9_0, Initial residual = 1, Final residual = 0.600336, No Iterations 1
GAMG:  Solving for ILambda_10_0, Initial residual = 1, Final residual = 0.169836, No Iterations 1
GAMG:  Solving for ILambda_11_0, Initial residual = 1, Final residual = 0.0117888, No Iterations 1
GAMG:  Solving for ILambda_12_0, Initial residual = 1, Final residual = 9.35892e-09, No Iterations 1
GAMG:  Solving for ILambda_13_0, Initial residual = 1, Final residual = 4.21998e-09, No Iterations 1
GAMG:  Solving for ILambda_14_0, Initial residual = 1, Final residual = 0.498059, No Iterations 1
GAMG:  Solving for ILambda_15_0, Initial residual = 1, Final residual = 0.480987, No Iterations 1
DILUPBiCGStab:  Solving for O2, Initial residual = 0.0487793, Final residual = 7.95209e-09, No Iterations 2
DILUPBiCGStab:  Solving for H2O, Initial residual = 0.0509641, Final residual = 8.31323e-09, No Iterations 2
DILUPBiCGStab:  Solving for CH4, Initial residual = 0.0135798, Final residual = 4.17086e-07, No Iterations 1
DILUPBiCGStab:  Solving for CO2, Initial residual = 0.0509641, Final residual = 8.31323e-09, No Iterations 2
DILUPBiCGStab:  Solving for h, Initial residual = 0.0509393, Final residual = 8.26764e-09, No Iterations 2
min/max(T) = 299.995, 847.665
GAMG:  Solving for p_rgh, Initial residual = 0.0149181, Final residual = 0.000991325, No Iterations 2
diagonal:  Solving for rho, Initial residual = 0, Final residual = 0, No Iterations 0
time step continuity errors : sum local = 6.26305e-06, global = -3.5329e-06, cumulative = -1.15737e-05
GAMG:  Solving for p_rgh, Initial residual = 0.00302293, Final residual = 5.89032e-07, No Iterations 7
diagonal:  Solving for rho, Initial residual = 0, Final residual = 0, No Iterations 0
time step continuity errors : sum local = 2.26389e-09, global = -9.22349e-10, cumulative = -1.15747e-05
DILUPBiCGStab:  Solving for k, Initial residual = 0.10741, Final residual = 6.8285e-09, No Iterations 2
ExecutionTime = 9.38 s  ClockTime = 10 s

Courant Number mean: 0.0273159 max: 0.60718
deltaT = 0.0017682
Time = 0.0328082

diagonal:  Solving for rho, Initial residual = 0, Final residual = 0, No Iterations 0
DILUPBiCGStab:  Solving for Ux, Initial residual = 0.0291584, Final residual = 1.23642e-07, No Iterations 1
DILUPBiCGStab:  Solving for Uy, Initial residual = 0.027688, Final residual = 7.62642e-08, No Iterations 1
DILUPBiCGStab:  Solving for Uz, Initial residual = 0.0278879, Final residual = 3.94881e-08, No Iterations 1
DILUPBiCGStab:  Solving for O2, Initial residual = 0.0400529, Final residual = 5.3876e-09, No Iterations 2
DILUPBiCGStab:  Solving for H2O, Initial residual = 0.0415813, Final residual = 5.58168e-09, No Iterations 2
DILUPBiCGStab:  Solving for CH4, Initial residual = 0.0102819, Final residual = 3.17178e-07, No Iterations 1
DILUPBiCGStab:  Solving for CO2, Initial residual = 0.0415813, Final residual = 5.58168e-09, No Iterations 2
DILUPBiCGStab:  Solving for h, Initial residual = 0.0415409, Final residual = 5.54205e-09, No Iterations 2
min/max(T) = 299.994, 947.132
GAMG:  Solving for p_rgh, Initial residual = 0.0139999, Final residual = 0.00109195, No Iterations 2
diagonal:  Solving for rho, Initial residual = 0, Final residual = 0, No Iterations 0
time step continuity errors : sum local = 3.63915e-06, global = -1.95254e-06, cumulative = -1.35272e-05
GAMG:  Solving for p_rgh, Initial residual = 0.00353659, Final residual = 6.62106e-07, No Iterations 7
diagonal:  Solving for rho, Initial residual = 0, Final residual = 0, No Iterations 0
time step continuity errors : sum local = 1.14239e-09, global = -4.37802e-10, cumulative = -1.35276e-05
DILUPBiCGStab:  Solving for k, Initial residual = 0.0796055, Final residual = 8.32341e-07, No Iterations 1
ExecutionTime = 10.13 s  ClockTime = 11 s

Courant Number mean: 0.0264233 max: 0.597751
deltaT = 0.0017682
Time = 0.0345765

diagonal:  Solving for rho, Initial residual = 0, Final residual = 0, No Iterations 0
DILUPBiCGStab:  Solving for Ux, Initial residual = 0.0108596, Final residual = 5.09448e-08, No Iterations 1
DILUPBiCGStab:  Solving for Uy, Initial residual = 0.0125376, Final residual = 5.08798e-08, No Iterations 1
DILUPBiCGStab:  Solving for Uz, Initial residual = 0.0109956, Final residual = 3.48255e-08, No Iterations 1
DILUPBiCGStab:  Solving for O2, Initial residual = 0.0340557, Final residual = 8.94955e-07, No Iterations 1
DILUPBiCGStab:  Solving for H2O, Initial residual = 0.035109, Final residual = 9.19798e-07, No Iterations 1
DILUPBiCGStab:  Solving for CH4, Initial residual = 0.00983725, Final residual = 3.29089e-07, No Iterations 1
DILUPBiCGStab:  Solving for CO2, Initial residual = 0.035109, Final residual = 9.19798e-07, No Iterations 1
DILUPBiCGStab:  Solving for h, Initial residual = 0.0350465, Final residual = 9.12135e-07, No Iterations 1
min/max(T) = 299.992, 1048.2
GAMG:  Solving for p_rgh, Initial residual = 0.0343693, Final residual = 0.00194603, No Iterations 2
diagonal:  Solving for rho, Initial residual = 0, Final residual = 0, No Iterations 0
time step continuity errors : sum local = 3.22557e-06, global = -1.73015e-06, cumulative = -1.52578e-05
GAMG:  Solving for p_rgh, Initial residual = 0.00759032, Final residual = 4.12953e-07, No Iterations 8
diagonal:  Solving for rho, Initial residual = 0, Final residual = 0, No Iterations 0
time step continuity errors : sum local = 3.63687e-10, global = -1.22164e-10, cumulative = -1.52579e-05
DILUPBiCGStab:  Solving for k, Initial residual = 0.0607972, Final residual = 5.04244e-07, No Iterations 1
ExecutionTime = 10.89 s  ClockTime = 11 s

Courant Number mean: 0.0260533 max: 0.612232
deltaT = 0.00167753
Time = 0.036254

diagonal:  Solving for rho, Initial residual = 0, Final residual = 0, No Iterations 0
DILUPBiCGStab:  Solving for Ux, Initial residual = 0.00573853, Final residual = 2.61791e-08, No Iterations 1
DILUPBiCGStab:  Solving for Uy, Initial residual = 0.00749769, Final residual = 4.4854e-08, No Iterations 1
DILUPBiCGStab:  Solving for Uz, Initial residual = 0.00749145, Final residual = 4.26854e-08, No Iterations 1
DILUPBiCGStab:  Solving for O2, Initial residual = 0.0284056, Final residual = 4.91566e-07, No Iterations 1
DILUPBiCGStab:  Solving for H2O, Initial residual = 0.0292315, Final residual = 5.04328e-07, No Iterations 1
DILUPBiCGStab:  Solving for CH4, Initial residual = 0.00661108, Final residual = 1.59849e-07, No Iterations 1
DILUPBiCGStab:  Solving for CO2, Initial residual = 0.0292315, Final residual = 5.04328e-07, No Iterations 1
DILUPBiCGStab:  Solving for h, Initial residual = 0.0291562, Final residual = 4.99049e-07, No Iterations 1
min/max(T) = 299.99, 1155.04
GAMG:  Solving for p_rgh, Initial residual = 0.0474401, Final residual = 0.0023035, No Iterations 2
diagonal:  Solving for rho, Initial residual = 0, Final residual = 0, No Iterations 0
time step continuity errors : sum local = 2.10432e-06, global = -1.13244e-06, cumulative = -1.63904e-05
GAMG:  Solving for p_rgh, Initial residual = 0.00441418, Final residual = 5.31679e-07, No Iterations 7
diagonal:  Solving for rho, Initial residual = 0, Final residual = 0, No Iterations 0
time step continuity errors : sum local = 5.87738e-10, global = -1.79027e-10, cumulative = -1.63905e-05
DILUPBiCGStab:  Solving for k, Initial residual = 0.0465342, Final residual = 2.81475e-07, No Iterations 1
ExecutionTime = 11.67 s  ClockTime = 12 s

Courant Number mean: 0.0242959 max: 0.59947
deltaT = 0.00167753
Time = 0.0379315

diagonal:  Solving for rho, Initial residual = 0, Final residual = 0, No Iterations 0
DILUPBiCGStab:  Solving for Ux, Initial residual = 0.00936033, Final residual = 2.54877e-08, No Iterations 1
DILUPBiCGStab:  Solving for Uy, Initial residual = 0.00938896, Final residual = 3.50761e-08, No Iterations 1
DILUPBiCGStab:  Solving for Uz, Initial residual = 0.00995386, Final residual = 3.06089e-08, No Iterations 1
DILUPBiCGStab:  Solving for O2, Initial residual = 0.0246974, Final residual = 3.74287e-07, No Iterations 1
DILUPBiCGStab:  Solving for H2O, Initial residual = 0.0253042, Final residual = 3.82105e-07, No Iterations 1
DILUPBiCGStab:  Solving for CH4, Initial residual = 0.00647073, Final residual = 1.45248e-07, No Iterations 1
DILUPBiCGStab:  Solving for CO2, Initial residual = 0.0253042, Final residual = 3.82105e-07, No Iterations 1
DILUPBiCGStab:  Solving for h, Initial residual = 0.0252008, Final residual = 3.767e-07, No Iterations 1
min/max(T) = 299.99, 1263.09
GAMG:  Solving for p_rgh, Initial residual = 0.0430533, Final residual = 0.00377124, No Iterations 1
diagonal:  Solving for rho, Initial residual = 0, Final residual = 0, No Iterations 0
time step continuity errors : sum local = 4.45609e-06, global = -2.23424e-06, cumulative = -1.86248e-05
GAMG:  Solving for p_rgh, Initial residual = 0.00485136, Final residual = 6.8611e-07, No Iterations 7
diagonal:  Solving for rho, Initial residual = 0, Final residual = 0, No Iterations 0
time step continuity errors : sum local = 9.07259e-10, global = -3.54593e-10, cumulative = -1.86251e-05
DILUPBiCGStab:  Solving for k, Initial residual = 0.0375052, Final residual = 1.84479e-07, No Iterations 1
ExecutionTime = 12.41 s  ClockTime = 13 s

Courant Number mean: 0.0236465 max: 0.615535
deltaT = 0.0015915
Time = 0.039523

diagonal:  Solving for rho, Initial residual = 0, Final residual = 0, No Iterations 0
DILUPBiCGStab:  Solving for Ux, Initial residual = 0.0126573, Final residual = 2.74686e-08, No Iterations 1
DILUPBiCGStab:  Solving for Uy, Initial residual = 0.0131703, Final residual = 3.06263e-08, No Iterations 1
DILUPBiCGStab:  Solving for Uz, Initial residual = 0.0137605, Final residual = 2.63499e-08, No Iterations 1
DILUPBiCGStab:  Solving for O2, Initial residual = 0.0209466, Final residual = 2.04988e-07, No Iterations 1
DILUPBiCGStab:  Solving for H2O, Initial residual = 0.0214488, Final residual = 2.09283e-07, No Iterations 1
DILUPBiCGStab:  Solving for CH4, Initial residual = 0.00430678, Final residual = 6.51235e-08, No Iterations 1
DILUPBiCGStab:  Solving for CO2, Initial residual = 0.0214488, Final residual = 2.09283e-07, No Iterations 1
DILUPBiCGStab:  Solving for h, Initial residual = 0.021332, Final residual = 2.05611e-07, No Iterations 1
min/max(T) = 299.99, 1376.05
GAMG:  Solving for p_rgh, Initial residual = 0.0237591, Final residual = 0.000998269, No Iterations 2
diagonal:  Solving for rho, Initial residual = 0, Final residual = 0, No Iterations 0
time step continuity errors : sum local = 1.3294e-06, global = -2.77059e-07, cumulative = -1.89022e-05
GAMG:  Solving for p_rgh, Initial residual = 0.00229685, Final residual = 2.80106e-07, No Iterations 7
diagonal:  Solving for rho, Initial residual = 0, Final residual = 0, No Iterations 0
time step continuity errors : sum local = 3.68065e-10, global = -9.88745e-11, cumulative = -1.89023e-05
DILUPBiCGStab:  Solving for k, Initial residual = 0.0298628, Final residual = 1.12494e-07, No Iterations 1
ExecutionTime = 13.15 s  ClockTime = 14 s

Courant Number mean: 0.0218676 max: 0.602964
deltaT = 0.00151192
Time = 0.0410349

diagonal:  Solving for rho, Initial residual = 0, Final residual = 0, No Iterations 0
DILUPBiCGStab:  Solving for Ux, Initial residual = 0.0130444, Final residual = 1.69306e-08, No Iterations 1
DILUPBiCGStab:  Solving for Uy, Initial residual = 0.0128131, Final residual = 1.86925e-08, No Iterations 1
DILUPBiCGStab:  Solving for Uz, Initial residual = 0.0134778, Final residual = 1.53512e-08, No Iterations 1
DILUPBiCGStab:  Solving for O2, Initial residual = 0.0180401, Final residual = 1.24517e-07, No Iterations 1
DILUPBiCGStab:  Solving for H2O, Initial residual = 0.0184461, Final residual = 1.26963e-07, No Iterations 1
DILUPBiCGStab:  Solving for CH4, Initial residual = 0.00343955, Final residual = 3.60694e-08, No Iterations 1
DILUPBiCGStab:  Solving for CO2, Initial residual = 0.0184461, Final residual = 1.26963e-07, No Iterations 1
DILUPBiCGStab:  Solving for h, Initial residual = 0.0183133, Final residual = 1.24066e-07, No Iterations 1
min/max(T) = 299.99, 1490.62
GAMG:  Solving for p_rgh, Initial residual = 0.026207, Final residual = 0.000787569, No Iterations 2
diagonal:  Solving for rho, Initial residual = 0, Final residual = 0, No Iterations 0
time step continuity errors : sum local = 9.74276e-07, global = 4.26789e-07, cumulative = -1.84755e-05
GAMG:  Solving for p_rgh, Initial residual = 0.00257421, Final residual = 7.6205e-07, No Iterations 6
diagonal:  Solving for rho, Initial residual = 0, Final residual = 0, No Iterations 0
time step continuity errors : sum local = 8.26763e-10, global = 3.19933e-10, cumulative = -1.84752e-05
DILUPBiCGStab:  Solving for k, Initial residual = 0.0248287, Final residual = 7.59394e-08, No Iterations 1
ExecutionTime = 13.91 s  ClockTime = 14 s

Courant Number mean: 0.0203621 max: 0.594375
deltaT = 0.00151192
Time = 0.0425469

diagonal:  Solving for rho, Initial residual = 0, Final residual = 0, No Iterations 0
DILUPBiCGStab:  Solving for Ux, Initial residual = 0.0109117, Final residual = 1.01713e-08, No Iterations 1
DILUPBiCGStab:  Solving for Uy, Initial residual = 0.0108191, Final residual = 1.54268e-08, No Iterations 1
DILUPBiCGStab:  Solving for Uz, Initial residual = 0.0111638, Final residual = 1.13581e-08, No Iterations 1
DILUPBiCGStab:  Solving for O2, Initial residual = 0.0160358, Final residual = 9.87323e-08, No Iterations 1
DILUPBiCGStab:  Solving for H2O, Initial residual = 0.01635, Final residual = 1.00365e-07, No Iterations 1
DILUPBiCGStab:  Solving for CH4, Initial residual = 0.00362622, Final residual = 3.42793e-08, No Iterations 1
DILUPBiCGStab:  Solving for CO2, Initial residual = 0.01635, Final residual = 1.00365e-07, No Iterations 1
DILUPBiCGStab:  Solving for h, Initial residual = 0.0161909, Final residual = 9.73595e-08, No Iterations 1
min/max(T) = 299.99, 1602.51
GAMG:  Solving for p_rgh, Initial residual = 0.0317681, Final residual = 0.00102054, No Iterations 2
diagonal:  Solving for rho, Initial residual = 0, Final residual = 0, No Iterations 0
time step continuity errors : sum local = 1.08118e-06, global = -4.34457e-07, cumulative = -1.89096e-05
GAMG:  Solving for p_rgh, Initial residual = 0.00197653, Final residual = 6.04512e-07, No Iterations 6
diagonal:  Solving for rho, Initial residual = 0, Final residual = 0, No Iterations 0
time step continuity errors : sum local = 7.70816e-10, global = -2.80972e-10, cumulative = -1.89099e-05
DILUPBiCGStab:  Solving for k, Initial residual = 0.0209904, Final residual = 5.95772e-08, No Iterations 1
ExecutionTime = 14.69 s  ClockTime = 15 s

Courant Number mean: 0.0197527 max: 0.609716
deltaT = 0.00143633
Time = 0.0439832

diagonal:  Solving for rho, Initial residual = 0, Final residual = 0, No Iterations 0
DILUPBiCGStab:  Solving for Ux, Initial residual = 0.0140357, Final residual = 1.41408e-08, No Iterations 1
DILUPBiCGStab:  Solving for Uy, Initial residual = 0.014518, Final residual = 1.42307e-08, No Iterations 1
DILUPBiCGStab:  Solving for Uz, Initial residual = 0.0152313, Final residual = 1.18679e-08, No Iterations 1
DILUPBiCGStab:  Solving for O2, Initial residual = 0.0137569, Final residual = 5.56661e-08, No Iterations 1
DILUPBiCGStab:  Solving for H2O, Initial residual = 0.0140243, Final residual = 5.66023e-08, No Iterations 1
DILUPBiCGStab:  Solving for CH4, Initial residual = 0.0031859, Final residual = 1.68028e-08, No Iterations 1
DILUPBiCGStab:  Solving for CO2, Initial residual = 0.0140243, Final residual = 5.66023e-08, No Iterations 1
DILUPBiCGStab:  Solving for h, Initial residual = 0.0138473, Final residual = 5.45365e-08, No Iterations 1
min/max(T) = 299.99, 1680.49
GAMG:  Solving for p_rgh, Initial residual = 0.0196869, Final residual = 0.000699362, No Iterations 2
diagonal:  Solving for rho, Initial residual = 0, Final residual = 0, No Iterations 0
time step continuity errors : sum local = 8.26425e-07, global = -4.40833e-07, cumulative = -1.93508e-05
GAMG:  Solving for p_rgh, Initial residual = 0.00119027, Final residual = 4.95923e-07, No Iterations 6
diagonal:  Solving for rho, Initial residual = 0, Final residual = 0, No Iterations 0
time step continuity errors : sum local = 6.82855e-10, global = -2.04137e-10, cumulative = -1.9351e-05
DILUPBiCGStab:  Solving for k, Initial residual = 0.0170058, Final residual = 3.96009e-08, No Iterations 1
ExecutionTime = 15.46 s  ClockTime = 16 s

Courant Number mean: 0.0181253 max: 0.59192
deltaT = 0.00143633
Time = 0.0454195

diagonal:  Solving for rho, Initial residual = 0, Final residual = 0, No Iterations 0
DILUPBiCGStab:  Solving for Ux, Initial residual = 0.0185445, Final residual = 1.62768e-08, No Iterations 1
DILUPBiCGStab:  Solving for Uy, Initial residual = 0.0178209, Final residual = 1.29633e-08, No Iterations 1
DILUPBiCGStab:  Solving for Uz, Initial residual = 0.0190839, Final residual = 1.13491e-08, No Iterations 1
DILUPBiCGStab:  Solving for O2, Initial residual = 0.0121457, Final residual = 4.11811e-08, No Iterations 1
DILUPBiCGStab:  Solving for H2O, Initial residual = 0.0123465, Final residual = 4.16974e-08, No Iterations 1
DILUPBiCGStab:  Solving for CH4, Initial residual = 0.00355761, Final residual = 1.96949e-08, No Iterations 1
DILUPBiCGStab:  Solving for CO2, Initial residual = 0.0123465, Final residual = 4.16974e-08, No Iterations 1
DILUPBiCGStab:  Solving for h, Initial residual = 0.0121357, Final residual = 3.97017e-08, No Iterations 1
min/max(T) = 299.989, 1736.26
GAMG:  Solving for p_rgh, Initial residual = 0.0195455, Final residual = 0.000613014, No Iterations 2
diagonal:  Solving for rho, Initial residual = 0, Final residual = 0, No Iterations 0
time step continuity errors : sum local = 8.65941e-07, global = -4.25512e-07, cumulative = -1.97765e-05
GAMG:  Solving for p_rgh, Initial residual = 0.00120516, Final residual = 4.50538e-07, No Iterations 6
diagonal:  Solving for rho, Initial residual = 0, Final residual = 0, No Iterations 0
time step continuity errors : sum local = 7.27386e-10, global = -2.4867e-10, cumulative = -1.97767e-05
DILUPBiCGStab:  Solving for k, Initial residual = 0.013997, Final residual = 2.98048e-08, No Iterations 1
ExecutionTime = 16.2 s  ClockTime = 17 s

Courant Number mean: 0.0173217 max: 0.59594
deltaT = 0.00143633
Time = 0.0468558

diagonal:  Solving for rho, Initial residual = 0, Final residual = 0, No Iterations 0
DILUPBiCGStab:  Solving for Ux, Initial residual = 0.0234268, Final residual = 2.95007e-08, No Iterations 1
DILUPBiCGStab:  Solving for Uy, Initial residual = 0.0224093, Final residual = 1.53329e-08, No Iterations 1
DILUPBiCGStab:  Solving for Uz, Initial residual = 0.0243059, Final residual = 1.23299e-08, No Iterations 1
Radiation solver iter: 0
GAMG:  Solving for ILambda_0_0, Initial residual = 0.875035, Final residual = 0.0209737, No Iterations 1
GAMG:  Solving for ILambda_1_0, Initial residual = 0.874995, Final residual = 0.000459407, No Iterations 1
GAMG:  Solving for ILambda_2_0, Initial residual = 0.926598, Final residual = 0.00396413, No Iterations 1
GAMG:  Solving for ILambda_3_0, Initial residual = 0.931692, Final residual = 0.00117812, No Iterations 1
GAMG:  Solving for ILambda_4_0, Initial residual = 0.930987, Final residual = 0.0107774, No Iterations 1
GAMG:  Solving for ILambda_5_0, Initial residual = 0.920487, Final residual = 0.0984543, No Iterations 1
GAMG:  Solving for ILambda_6_0, Initial residual = 0.87949, Final residual = 0.375077, No Iterations 1
GAMG:  Solving for ILambda_7_0, Initial residual = 0.878348, Final residual = 0.329384, No Iterations 1
GAMG:  Solving for ILambda_8_0, Initial residual = 0.879339, Final residual = 0.610094, No Iterations 1
GAMG:  Solving for ILambda_9_0, Initial residual = 0.879089, Final residual = 0.480637, No Iterations 1
GAMG:  Solving for ILambda_10_0, Initial residual = 0.918028, Final residual = 0.123821, No Iterations 1
GAMG:  Solving for ILambda_11_0, Initial residual = 0.931034, Final residual = 0.0090637, No Iterations 1
GAMG:  Solving for ILambda_12_0, Initial residual = 0.931702, Final residual = 2.07946e-09, No Iterations 1
GAMG:  Solving for ILambda_13_0, Initial residual = 0.926605, Final residual = 9.70411e-10, No Iterations 1
GAMG:  Solving for ILambda_14_0, Initial residual = 0.878306, Final residual = 0.406321, No Iterations 1
GAMG:  Solving for ILambda_15_0, Initial residual = 0.879067, Final residual = 0.413143, No Iterations 1
DILUPBiCGStab:  Solving for O2, Initial residual = 0.0102852, Final residual = 2.6858e-08, No Iterations 1
DILUPBiCGStab:  Solving for H2O, Initial residual = 0.0104183, Final residual = 2.70244e-08, No Iterations 1
DILUPBiCGStab:  Solving for CH4, Initial residual = 0.00500663, Final residual = 2.31535e-08, No Iterations 1
DILUPBiCGStab:  Solving for CO2, Initial residual = 0.0104183, Final residual = 2.70244e-08, No Iterations 1
DILUPBiCGStab:  Solving for h, Initial residual = 0.0102056, Final residual = 2.55496e-08, No Iterations 1
min/max(T) = 299.989, 1792.11
GAMG:  Solving for p_rgh, Initial residual = 0.0155655, Final residual = 0.000736068, No Iterations 2
diagonal:  Solving for rho, Initial residual = 0, Final residual = 0, No Iterations 0
time step continuity errors : sum local = 1.21128e-06, global = -5.55782e-07, cumulative = -2.03325e-05
GAMG:  Solving for p_rgh, Initial residual = 0.000915718, Final residual = 3.90236e-07, No Iterations 6
diagonal:  Solving for rho, Initial residual = 0, Final residual = 0, No Iterations 0
time step continuity errors : sum local = 8.12554e-10, global = -2.67515e-10, cumulative = -2.03328e-05
DILUPBiCGStab:  Solving for k, Initial residual = 0.0109741, Final residual = 1.96716e-08, No Iterations 1
ExecutionTime = 17.34 s  ClockTime = 18 s

Courant Number mean: 0.0161885 max: 0.591997
deltaT = 0.00143633
Time = 0.0482922

diagonal:  Solving for rho, Initial residual = 0, Final residual = 0, No Iterations 0
DILUPBiCGStab:  Solving for Ux, Initial residual = 0.033751, Final residual = 3.74209e-08, No Iterations 1
DILUPBiCGStab:  Solving for Uy, Initial residual = 0.0335082, Final residual = 1.80122e-08, No Iterations 1
DILUPBiCGStab:  Solving for Uz, Initial residual = 0.0360055, Final residual = 1.3249e-08, No Iterations 1
DILUPBiCGStab:  Solving for O2, Initial residual = 0.00836725, Final residual = 1.52742e-08, No Iterations 1
DILUPBiCGStab:  Solving for H2O, Initial residual = 0.00844464, Final residual = 1.52443e-08, No Iterations 1
DILUPBiCGStab:  Solving for CH4, Initial residual = 0.00665372, Final residual = 2.21761e-08, No Iterations 1
DILUPBiCGStab:  Solving for CO2, Initial residual = 0.00844464, Final residual = 1.52443e-08, No Iterations 1
DILUPBiCGStab:  Solving for h, Initial residual = 0.00819293, Final residual = 1.41418e-08, No Iterations 1
min/max(T) = 299.988, 1831.09
GAMG:  Solving for p_rgh, Initial residual = 0.0109765, Final residual = 0.000764535, No Iterations 2
diagonal:  Solving for rho, Initial residual = 0, Final residual = 0, No Iterations 0
time step continuity errors : sum local = 1.62433e-06, global = -8.08298e-07, cumulative = -2.11411e-05
GAMG:  Solving for p_rgh, Initial residual = 0.000613111, Final residual = 4.21473e-07, No Iterations 6
diagonal:  Solving for rho, Initial residual = 0, Final residual = 0, No Iterations 0
time step continuity errors : sum local = 1.23152e-09, global = -4.16662e-10, cumulative = -2.11415e-05
DILUPBiCGStab:  Solving for k, Initial residual = 0.00850687, Final residual = 1.35601e-08, No Iterations 1
ExecutionTime = 18.07 s  ClockTime = 18 s

Courant Number mean: 0.0145395 max: 0.582088
deltaT = 0.00152082
Time = 0.049813

diagonal:  Solving for rho, Initial residual = 0, Final residual = 0, No Iterations 0
DILUPBiCGStab:  Solving for Ux, Initial residual = 0.0601535, Final residual = 5.75817e-08, No Iterations 1
DILUPBiCGStab:  Solving for Uy, Initial residual = 0.0567387, Final residual = 2.39546e-08, No Iterations 1
DILUPBiCGStab:  Solving for Uz, Initial residual = 0.0624129, Final residual = 1.67391e-08, No Iterations 1
DILUPBiCGStab:  Solving for O2, Initial residual = 0.00688358, Final residual = 1.01086e-08, No Iterations 1
DILUPBiCGStab:  Solving for H2O, Initial residual = 0.00691427, Final residual = 9.93643e-09, No Iterations 1
DILUPBiCGStab:  Solving for CH4, Initial residual = 0.00813173, Final residual = 2.07297e-08, No Iterations 1
DILUPBiCGStab:  Solving for CO2, Initial residual = 0.00691427, Final residual = 9.93643e-09, No Iterations 1
DILUPBiCGStab:  Solving for h, Initial residual = 0.0066215, Final residual = 8.80591e-09, No Iterations 1
min/max(T) = 299.987, 1858.59
GAMG:  Solving for p_rgh, Initial residual = 0.00715145, Final residual = 0.000436559, No Iterations 2
diagonal:  Solving for rho, Initial residual = 0, Final residual = 0, No Iterations 0
time step continuity errors : sum local = 1.45877e-06, global = -7.90707e-07, cumulative = -2.19322e-05
GAMG:  Solving for p_rgh, Initial residual = 0.000416492, Final residual = 9.69804e-07, No Iterations 5
diagonal:  Solving for rho, Initial residual = 0, Final residual = 0, No Iterations 0
time step continuity errors : sum local = 3.93729e-09, global = -1.48055e-09, cumulative = -2.19337e-05
DILUPBiCGStab:  Solving for k, Initial residual = 0.00726862, Final residual = 1.82166e-08, No Iterations 1
ExecutionTime = 18.8 s  ClockTime = 19 s

Courant Number mean: 0.0131996 max: 0.603623
deltaT = 0.00143391
Time = 0.0512469

diagonal:  Solving for rho, Initial residual = 0, Final residual = 0, No Iterations 0
DILUPBiCGStab:  Solving for Ux, Initial residual = 0.0865023, Final residual = 4.57093e-08, No Iterations 1
DILUPBiCGStab:  Solving for Uy, Initial residual = 0.0759974, Final residual = 1.70149e-08, No Iterations 1
DILUPBiCGStab:  Solving for Uz, Initial residual = 0.0859391, Final residual = 1.15891e-08, No Iterations 1
DILUPBiCGStab:  Solving for O2, Initial residual = 0.00519337, Final residual = 5.30318e-09, No Iterations 1
DILUPBiCGStab:  Solving for H2O, Initial residual = 0.00520828, Final residual = 5.10167e-09, No Iterations 1
DILUPBiCGStab:  Solving for CH4, Initial residual = 0.00798369, Final residual = 1.42912e-08, No Iterations 1
DILUPBiCGStab:  Solving for CO2, Initial residual = 0.00520828, Final residual = 5.10167e-09, No Iterations 1
DILUPBiCGStab:  Solving for h, Initial residual = 0.0049274, Final residual = 4.18541e-09, No Iterations 1
min/max(T) = 299.986, 1880.83
GAMG:  Solving for p_rgh, Initial residual = 0.00553397, Final residual = 0.000388572, No Iterations 2
diagonal:  Solving for rho, Initial residual = 0, Final residual = 0, No Iterations 0
time step continuity errors : sum local = 1.42791e-06, global = -4.50831e-07, cumulative = -2.23845e-05
GAMG:  Solving for p_rgh, Initial residual = 0.000374545, Final residual = 3.81093e-07, No Iterations 6
diagonal:  Solving for rho, Initial residual = 0, Final residual = 0, No Iterations 0
time step continuity errors : sum local = 1.41232e-09, global = -4.75443e-10, cumulative = -2.2385e-05
DILUPBiCGStab:  Solving for k, Initial residual = 0.00592246, Final residual = 1.54559e-08, No Iterations 1
ExecutionTime = 19.54 s  ClockTime = 20 s

Courant Number mean: 0.0106239 max: 0.566472
deltaT = 0.00152353
Time = 0.0527704

diagonal:  Solving for rho, Initial residual = 0, Final residual = 0, No Iterations 0
DILUPBiCGStab:  Solving for Ux, Initial residual = 0.114898, Final residual = 5.71557e-08, No Iterations 1
DILUPBiCGStab:  Solving for Uy, Initial residual = 0.0955651, Final residual = 1.63989e-08, No Iterations 1
DILUPBiCGStab:  Solving for Uz, Initial residual = 0.110201, Final residual = 1.36285e-08, No Iterations 1
DILUPBiCGStab:  Solving for O2, Initial residual = 0.00442206, Final residual = 4.46968e-09, No Iterations 1
DILUPBiCGStab:  Solving for H2O, Initial residual = 0.00439628, Final residual = 4.18489e-09, No Iterations 1
DILUPBiCGStab:  Solving for CH4, Initial residual = 0.00811935, Final residual = 1.90418e-08, No Iterations 1
DILUPBiCGStab:  Solving for CO2, Initial residual = 0.00439628, Final residual = 4.18489e-09, No Iterations 1
DILUPBiCGStab:  Solving for h, Initial residual = 0.00411254, Final residual = 3.27513e-09, No Iterations 1
min/max(T) = 299.986, 1889.27
GAMG:  Solving for p_rgh, Initial residual = 0.00656315, Final residual = 0.00039718, No Iterations 2
diagonal:  Solving for rho, Initial residual = 0, Final residual = 0, No Iterations 0
time step continuity errors : sum local = 1.67654e-06, global = 8.99536e-07, cumulative = -2.14854e-05
GAMG:  Solving for p_rgh, Initial residual = 0.000549936, Final residual = 3.90278e-07, No Iterations 6
diagonal:  Solving for rho, Initial residual = 0, Final residual = 0, No Iterations 0
time step continuity errors : sum local = 1.41331e-09, global = 5.53867e-10, cumulative = -2.14849e-05
DILUPBiCGStab:  Solving for k, Initial residual = 0.00640796, Final residual = 2.51583e-08, No Iterations 1
ExecutionTime = 20.27 s  ClockTime = 21 s

Courant Number mean: 0.00962957 max: 0.608767
deltaT = 0.0014312
Time = 0.0542016

diagonal:  Solving for rho, Initial residual = 0, Final residual = 0, No Iterations 0
DILUPBiCGStab:  Solving for Ux, Initial residual = 0.107311, Final residual = 3.57664e-08, No Iterations 1
DILUPBiCGStab:  Solving for Uy, Initial residual = 0.0893186, Final residual = 1.30001e-08, No Iterations 1
DILUPBiCGStab:  Solving for Uz, Initial residual = 0.10216, Final residual = 8.71629e-09, No Iterations 1
DILUPBiCGStab:  Solving for O2, Initial residual = 0.003543, Final residual = 3.05159e-09, No Iterations 1
DILUPBiCGStab:  Solving for H2O, Initial residual = 0.00351199, Final residual = 2.81832e-09, No Iterations 1
DILUPBiCGStab:  Solving for CH4, Initial residual = 0.00725878, Final residual = 1.5673e-08, No Iterations 1
DILUPBiCGStab:  Solving for CO2, Initial residual = 0.00351199, Final residual = 2.81832e-09, No Iterations 1
DILUPBiCGStab:  Solving for h, Initial residual = 0.0032564, Final residual = 2.14449e-09, No Iterations 1
min/max(T) = 299.987, 1890.68
GAMG:  Solving for p_rgh, Initial residual = 0.00672133, Final residual = 0.00038727, No Iterations 2
diagonal:  Solving for rho, Initial residual = 0, Final residual = 0, No Iterations 0
time step continuity errors : sum local = 1.22356e-06, global = 5.90726e-07, cumulative = -2.08942e-05
GAMG:  Solving for p_rgh, Initial residual = 0.000499385, Final residual = 4.12272e-07, No Iterations 6
diagonal:  Solving for rho, Initial residual = 0, Final residual = 0, No Iterations 0
time step continuity errors : sum local = 1.05952e-09, global = 3.5407e-10, cumulative = -2.08938e-05
DILUPBiCGStab:  Solving for k, Initial residual = 0.00696812, Final residual = 2.69384e-08, No Iterations 1
ExecutionTime = 21.01 s  ClockTime = 21 s

Courant Number mean: 0.00792478 max: 0.583891
deltaT = 0.0014312
Time = 0.0556328

diagonal:  Solving for rho, Initial residual = 0, Final residual = 0, No Iterations 0
DILUPBiCGStab:  Solving for Ux, Initial residual = 0.0972249, Final residual = 3.02865e-08, No Iterations 1
DILUPBiCGStab:  Solving for Uy, Initial residual = 0.0831356, Final residual = 8.67484e-09, No Iterations 1
DILUPBiCGStab:  Solving for Uz, Initial residual = 0.093948, Final residual = 6.49118e-09, No Iterations 1
DILUPBiCGStab:  Solving for O2, Initial residual = 0.00310173, Final residual = 2.7167e-09, No Iterations 1
DILUPBiCGStab:  Solving for H2O, Initial residual = 0.00306217, Final residual = 2.50865e-09, No Iterations 1
DILUPBiCGStab:  Solving for CH4, Initial residual = 0.00669888, Final residual = 1.6092e-08, No Iterations 1
DILUPBiCGStab:  Solving for CO2, Initial residual = 0.00306217, Final residual = 2.50865e-09, No Iterations 1
DILUPBiCGStab:  Solving for h, Initial residual = 0.00283055, Final residual = 1.91683e-09, No Iterations 1
min/max(T) = 299.988, 1884.77
GAMG:  Solving for p_rgh, Initial residual = 0.00796599, Final residual = 0.000476781, No Iterations 2
diagonal:  Solving for rho, Initial residual = 0, Final residual = 0, No Iterations 0
time step continuity errors : sum local = 1.21514e-06, global = 5.91412e-07, cumulative = -2.03024e-05
GAMG:  Solving for p_rgh, Initial residual = 0.000648932, Final residual = 4.79955e-07, No Iterations 6
diagonal:  Solving for rho, Initial residual = 0, Final residual = 0, No Iterations 0
time step continuity errors : sum local = 9.77468e-10, global = 3.20309e-10, cumulative = -2.03021e-05
DILUPBiCGStab:  Solving for k, Initial residual = 0.00764678, Final residual = 3.56146e-08, No Iterations 1
ExecutionTime = 21.75 s  ClockTime = 22 s

Courant Number mean: 0.00708959 max: 0.600552
deltaT = 0.00134446
Time = 0.0569773

diagonal:  Solving for rho, Initial residual = 0, Final residual = 0, No Iterations 0
DILUPBiCGStab:  Solving for Ux, Initial residual = 0.0782494, Final residual = 1.92321e-08, No Iterations 1
DILUPBiCGStab:  Solving for Uy, Initial residual = 0.0682487, Final residual = 5.1011e-09, No Iterations 1
DILUPBiCGStab:  Solving for Uz, Initial residual = 0.0766796, Final residual = 4.09378e-09, No Iterations 1
DILUPBiCGStab:  Solving for O2, Initial residual = 0.00264119, Final residual = 2.09714e-09, No Iterations 1
DILUPBiCGStab:  Solving for H2O, Initial residual = 0.00260357, Final residual = 1.95336e-09, No Iterations 1
DILUPBiCGStab:  Solving for CH4, Initial residual = 0.00585823, Final residual = 1.30521e-08, No Iterations 1
DILUPBiCGStab:  Solving for CO2, Initial residual = 0.00260357, Final residual = 1.95336e-09, No Iterations 1
DILUPBiCGStab:  Solving for h, Initial residual = 0.00239967, Final residual = 1.51595e-09, No Iterations 1
min/max(T) = 299.989, 1875.73
GAMG:  Solving for p_rgh, Initial residual = 0.00800374, Final residual = 0.000455223, No Iterations 2
diagonal:  Solving for rho, Initial residual = 0, Final residual = 0, No Iterations 0
time step continuity errors : sum local = 8.07916e-07, global = 3.5023e-07, cumulative = -1.99518e-05
GAMG:  Solving for p_rgh, Initial residual = 0.000611474, Final residual = 4.64976e-07, No Iterations 6
diagonal:  Solving for rho, Initial residual = 0, Final residual = 0, No Iterations 0
time step continuity errors : sum local = 6.69902e-10, global = 1.85033e-10, cumulative = -1.99517e-05
DILUPBiCGStab:  Solving for k, Initial residual = 0.00755571, Final residual = 3.47915e-08, No Iterations 1
ExecutionTime = 22.49 s  ClockTime = 23 s

Courant Number mean: 0.00610163 max: 0.576458
deltaT = 0.00143409
Time = 0.0584114

diagonal:  Solving for rho, Initial residual = 0, Final residual = 0, No Iterations 0
DILUPBiCGStab:  Solving for Ux, Initial residual = 0.0713715, Final residual = 2.16692e-08, No Iterations 1
DILUPBiCGStab:  Solving for Uy, Initial residual = 0.0631317, Final residual = 6.05308e-09, No Iterations 1
DILUPBiCGStab:  Solving for Uz, Initial residual = 0.0705706, Final residual = 4.32335e-09, No Iterations 1
DILUPBiCGStab:  Solving for O2, Initial residual = 0.00254558, Final residual = 2.60157e-09, No Iterations 1
DILUPBiCGStab:  Solving for H2O, Initial residual = 0.00251769, Final residual = 2.45492e-09, No Iterations 1
DILUPBiCGStab:  Solving for CH4, Initial residual = 0.00567822, Final residual = 1.67743e-08, No Iterations 1
DILUPBiCGStab:  Solving for CO2, Initial residual = 0.00251769, Final residual = 2.45492e-09, No Iterations 1
DILUPBiCGStab:  Solving for h, Initial residual = 0.00235464, Final residual = 2.04851e-09, No Iterations 1
min/max(T) = 299.99, 1860.59
GAMG:  Solving for p_rgh, Initial residual = 0.00993138, Final residual = 0.000405475, No Iterations 2
diagonal:  Solving for rho, Initial residual = 0, Final residual = 0, No Iterations 0
time step continuity errors : sum local = 6.54544e-07, global = 3.07887e-07, cumulative = -1.96438e-05
GAMG:  Solving for p_rgh, Initial residual = 0.000547107, Final residual = 4.22e-07, No Iterations 6
diagonal:  Solving for rho, Initial residual = 0, Final residual = 0, No Iterations 0
time step continuity errors : sum local = 5.75732e-10, global = 1.81818e-10, cumulative = -1.96436e-05
DILUPBiCGStab:  Solving for k, Initial residual = 0.00825825, Final residual = 5.41924e-08, No Iterations 1
ExecutionTime = 23.22 s  ClockTime = 24 s

Courant Number mean: 0.00600015 max: 0.620093
deltaT = 0.00134157
Time = 0.059753

diagonal:  Solving for rho, Initial residual = 0, Final residual = 0, No Iterations 0
DILUPBiCGStab:  Solving for Ux, Initial residual = 0.0590689, Final residual = 1.39097e-08, No Iterations 1
DILUPBiCGStab:  Solving for Uy, Initial residual = 0.053562, Final residual = 4.91974e-09, No Iterations 1
DILUPBiCGStab:  Solving for Uz, Initial residual = 0.0598912, Final residual = 3.36125e-09, No Iterations 1
DILUPBiCGStab:  Solving for O2, Initial residual = 0.00220363, Final residual = 2.10392e-09, No Iterations 1
DILUPBiCGStab:  Solving for H2O, Initial residual = 0.00217364, Final residual = 1.9906e-09, No Iterations 1
DILUPBiCGStab:  Solving for CH4, Initial residual = 0.00497516, Final residual = 1.29784e-08, No Iterations 1
DILUPBiCGStab:  Solving for CO2, Initial residual = 0.00217364, Final residual = 1.9906e-09, No Iterations 1
DILUPBiCGStab:  Solving for h, Initial residual = 0.00208114, Final residual = 1.74295e-09, No Iterations 1
min/max(T) = 299.991, 1845.01
GAMG:  Solving for p_rgh, Initial residual = 0.00845141, Final residual = 0.000398157, No Iterations 2
diagonal:  Solving for rho, Initial residual = 0, Final residual = 0, No Iterations 0
time step continuity errors : sum local = 4.73396e-07, global = 2.32901e-07, cumulative = -1.94107e-05
GAMG:  Solving for p_rgh, Initial residual = 0.000552501, Final residual = 3.41611e-07, No Iterations 6
diagonal:  Solving for rho, Initial residual = 0, Final residual = 0, No Iterations 0
time step continuity errors : sum local = 3.54967e-10, global = 9.69933e-11, cumulative = -1.94106e-05
DILUPBiCGStab:  Solving for k, Initial residual = 0.00789556, Final residual = 4.77942e-08, No Iterations 1
ExecutionTime = 23.96 s  ClockTime = 24 s

Courant Number mean: 0.00525022 max: 0.588414
deltaT = 0.00134157
Time = 0.0610945

diagonal:  Solving for rho, Initial residual = 0, Final residual = 0, No Iterations 0
DILUPBiCGStab:  Solving for Ux, Initial residual = 0.0537762, Final residual = 1.20195e-08, No Iterations 1
DILUPBiCGStab:  Solving for Uy, Initial residual = 0.0480649, Final residual = 7.02242e-09, No Iterations 1
DILUPBiCGStab:  Solving for Uz, Initial residual = 0.0540816, Final residual = 2.59956e-09, No Iterations 1
Radiation solver iter: 0
GAMG:  Solving for ILambda_0_0, Initial residual = 0.162858, Final residual = 0.00369987, No Iterations 1
GAMG:  Solving for ILambda_1_0, Initial residual = 0.160917, Final residual = 2.09775e-05, No Iterations 1
GAMG:  Solving for ILambda_2_0, Initial residual = 0.247391, Final residual = 0.00566438, No Iterations 1
GAMG:  Solving for ILambda_3_0, Initial residual = 0.266427, Final residual = 0.00184988, No Iterations 1
GAMG:  Solving for ILambda_4_0, Initial residual = 0.264287, Final residual = 0.00294455, No Iterations 1
GAMG:  Solving for ILambda_5_0, Initial residual = 0.238162, Final residual = 0.0167783, No Iterations 1
GAMG:  Solving for ILambda_6_0, Initial residual = 0.229731, Final residual = 0.0793622, No Iterations 1
GAMG:  Solving for ILambda_7_0, Initial residual = 0.22093, Final residual = 0.0716129, No Iterations 1
GAMG:  Solving for ILambda_8_0, Initial residual = 0.266995, Final residual = 0.138096, No Iterations 1
GAMG:  Solving for ILambda_9_0, Initial residual = 0.247774, Final residual = 0.100073, No Iterations 1
GAMG:  Solving for ILambda_10_0, Initial residual = 0.2307, Final residual = 0.0143848, No Iterations 1
GAMG:  Solving for ILambda_11_0, Initial residual = 0.26412, Final residual = 0.0020838, No Iterations 1
GAMG:  Solving for ILambda_12_0, Initial residual = 0.266684, Final residual = 1.5262e-08, No Iterations 1
GAMG:  Solving for ILambda_13_0, Initial residual = 0.247307, Final residual = 6.32506e-09, No Iterations 1
GAMG:  Solving for ILambda_14_0, Initial residual = 0.2392, Final residual = 0.0910821, No Iterations 1
GAMG:  Solving for ILambda_15_0, Initial residual = 0.235886, Final residual = 0.0966428, No Iterations 1
DILUPBiCGStab:  Solving for O2, Initial residual = 0.00208825, Final residual = 2.13888e-09, No Iterations 1
DILUPBiCGStab:  Solving for H2O, Initial residual = 0.00205243, Final residual = 2.05293e-09, No Iterations 1
DILUPBiCGStab:  Solving for CH4, Initial residual = 0.00456156, Final residual = 1.30725e-08, No Iterations 1
DILUPBiCGStab:  Solving for CO2, Initial residual = 0.00205243, Final residual = 2.05293e-09, No Iterations 1
DILUPBiCGStab:  Solving for h, Initial residual = 0.00208241, Final residual = 1.99334e-09, No Iterations 1
min/max(T) = 299.991, 1827.09
GAMG:  Solving for p_rgh, Initial residual = 0.0118708, Final residual = 0.000572782, No Iterations 2
diagonal:  Solving for rho, Initial residual = 0, Final residual = 0, No Iterations 0
time step continuity errors : sum local = 5.89315e-07, global = 2.82166e-07, cumulative = -1.91284e-05
GAMG:  Solving for p_rgh, Initial residual = 0.000831046, Final residual = 5.78856e-07, No Iterations 6
diagonal:  Solving for rho, Initial residual = 0, Final residual = 0, No Iterations 0
time step continuity errors : sum local = 4.53866e-10, global = 1.23435e-10, cumulative = -1.91283e-05
DILUPBiCGStab:  Solving for k, Initial residual = 0.00839451, Final residual = 5.91367e-08, No Iterations 1
ExecutionTime = 25.1 s  ClockTime = 25 s

Courant Number mean: 0.00500275 max: 0.591397
deltaT = 0.00134157
Time = 0.0624361

diagonal:  Solving for rho, Initial residual = 0, Final residual = 0, No Iterations 0
DILUPBiCGStab:  Solving for Ux, Initial residual = 0.0392037, Final residual = 1.38507e-08, No Iterations 1
DILUPBiCGStab:  Solving for Uy, Initial residual = 0.0351882, Final residual = 9.66834e-09, No Iterations 1
DILUPBiCGStab:  Solving for Uz, Initial residual = 0.0391881, Final residual = 2.56576e-09, No Iterations 1
DILUPBiCGStab:  Solving for O2, Initial residual = 0.00199383, Final residual = 2.13132e-09, No Iterations 1
DILUPBiCGStab:  Solving for H2O, Initial residual = 0.00196089, Final residual = 2.07895e-09, No Iterations 1
DILUPBiCGStab:  Solving for CH4, Initial residual = 0.00424969, Final residual = 1.25502e-08, No Iterations 1
DILUPBiCGStab:  Solving for CO2, Initial residual = 0.00196089, Final residual = 2.07895e-09, No Iterations 1
DILUPBiCGStab:  Solving for h, Initial residual = 0.00203379, Final residual = 2.08586e-09, No Iterations 1
min/max(T) = 299.992, 1808.02
GAMG:  Solving for p_rgh, Initial residual = 0.0183057, Final residual = 0.00119333, No Iterations 2
diagonal:  Solving for rho, Initial residual = 0, Final residual = 0, No Iterations 0
time step continuity errors : sum local = 9.19612e-07, global = 4.52792e-07, cumulative = -1.86755e-05
GAMG:  Solving for p_rgh, Initial residual = 0.00188633, Final residual = 3.95097e-07, No Iterations 7
diagonal:  Solving for rho, Initial residual = 0, Final residual = 0, No Iterations 0
time step continuity errors : sum local = 2.37409e-10, global = 6.43096e-11, cumulative = -1.86754e-05
DILUPBiCGStab:  Solving for k, Initial residual = 0.00721727, Final residual = 5.40927e-08, No Iterations 1
ExecutionTime = 25.85 s  ClockTime = 26 s

Courant Number mean: 0.00484197 max: 0.593594
deltaT = 0.00134157
Time = 0.0637777

diagonal:  Solving for rho, Initial residual = 0, Final residual = 0, No Iterations 0
DILUPBiCGStab:  Solving for Ux, Initial residual = 0.0282161, Final residual = 2.05837e-08, No Iterations 1
DILUPBiCGStab:  Solving for Uy, Initial residual = 0.0255277, Final residual = 5.41356e-08, No Iterations 1
DILUPBiCGStab:  Solving for Uz, Initial residual = 0.0277495, Final residual = 1.29016e-08, No Iterations 1
DILUPBiCGStab:  Solving for O2, Initial residual = 0.00192752, Final residual = 2.25193e-09, No Iterations 1
DILUPBiCGStab:  Solving for H2O, Initial residual = 0.00190734, Final residual = 2.25626e-09, No Iterations 1
DILUPBiCGStab:  Solving for CH4, Initial residual = 0.00396929, Final residual = 1.22923e-08, No Iterations 1
DILUPBiCGStab:  Solving for CO2, Initial residual = 0.00190734, Final residual = 2.25626e-09, No Iterations 1
DILUPBiCGStab:  Solving for h, Initial residual = 0.00199736, Final residual = 2.27834e-09, No Iterations 1
min/max(T) = 299.992, 1811.37
GAMG:  Solving for p_rgh, Initial residual = 0.0162599, Final residual = 0.000657329, No Iterations 2
diagonal:  Solving for rho, Initial residual = 0, Final residual = 0, No Iterations 0
time step continuity errors : sum local = 3.77888e-07, global = 1.5818e-07, cumulative = -1.85173e-05
GAMG:  Solving for p_rgh, Initial residual = 0.000939871, Final residual = 5.3475e-07, No Iterations 6
diagonal:  Solving for rho, Initial residual = 0, Final residual = 0, No Iterations 0
time step continuity errors : sum local = 2.63156e-10, global = 7.0932e-11, cumulative = -1.85172e-05
DILUPBiCGStab:  Solving for k, Initial residual = 0.00682202, Final residual = 4.28866e-08, No Iterations 1
ExecutionTime = 26.61 s  ClockTime = 27 s

Courant Number mean: 0.00472108 max: 0.593234
deltaT = 0.00134157
Time = 0.0651192

diagonal:  Solving for rho, Initial residual = 0, Final residual = 0, No Iterations 0
DILUPBiCGStab:  Solving for Ux, Initial residual = 0.0233097, Final residual = 2.09593e-08, No Iterations 1
DILUPBiCGStab:  Solving for Uy, Initial residual = 0.0209619, Final residual = 5.48422e-08, No Iterations 1
DILUPBiCGStab:  Solving for Uz, Initial residual = 0.0226321, Final residual = 9.84043e-09, No Iterations 1
DILUPBiCGStab:  Solving for O2, Initial residual = 0.00186428, Final residual = 2.25932e-09, No Iterations 1
DILUPBiCGStab:  Solving for H2O, Initial residual = 0.00187598, Final residual = 2.30479e-09, No Iterations 1
DILUPBiCGStab:  Solving for CH4, Initial residual = 0.00371234, Final residual = 1.19343e-08, No Iterations 1
DILUPBiCGStab:  Solving for CO2, Initial residual = 0.00187598, Final residual = 2.30479e-09, No Iterations 1
DILUPBiCGStab:  Solving for h, Initial residual = 0.00195343, Final residual = 2.32674e-09, No Iterations 1
min/max(T) = 299.992, 1828.07
GAMG:  Solving for p_rgh, Initial residual = 0.0187587, Final residual = 0.000610388, No Iterations 2
diagonal:  Solving for rho, Initial residual = 0, Final residual = 0, No Iterations 0
time step continuity errors : sum local = 2.96635e-07, global = 1.05314e-07, cumulative = -1.84119e-05
GAMG:  Solving for p_rgh, Initial residual = 0.000957163, Final residual = 4.47465e-07, No Iterations 6
diagonal:  Solving for rho, Initial residual = 0, Final residual = 0, No Iterations 0
time step continuity errors : sum local = 2.03541e-10, global = 4.32751e-11, cumulative = -1.84118e-05
DILUPBiCGStab:  Solving for k, Initial residual = 0.00622849, Final residual = 3.7644e-08, No Iterations 1
ExecutionTime = 27.34 s  ClockTime = 28 s

Courant Number mean: 0.00462405 max: 0.594629
deltaT = 0.00134157
Time = 0.0664608

diagonal:  Solving for rho, Initial residual = 0, Final residual = 0, No Iterations 0
DILUPBiCGStab:  Solving for Ux, Initial residual = 0.0212395, Final residual = 2.38228e-08, No Iterations 1
DILUPBiCGStab:  Solving for Uy, Initial residual = 0.0178881, Final residual = 4.87012e-08, No Iterations 1
DILUPBiCGStab:  Solving for Uz, Initial residual = 0.0193207, Final residual = 1.29971e-08, No Iterations 1
DILUPBiCGStab:  Solving for O2, Initial residual = 0.00181523, Final residual = 2.23101e-09, No Iterations 1
DILUPBiCGStab:  Solving for H2O, Initial residual = 0.0018556, Final residual = 2.31941e-09, No Iterations 1
DILUPBiCGStab:  Solving for CH4, Initial residual = 0.00351896, Final residual = 1.156e-08, No Iterations 1
DILUPBiCGStab:  Solving for CO2, Initial residual = 0.0018556, Final residual = 2.31941e-09, No Iterations 1
DILUPBiCGStab:  Solving for h, Initial residual = 0.00191829, Final residual = 2.32632e-09, No Iterations 1
min/max(T) = 299.992, 1843.19
GAMG:  Solving for p_rgh, Initial residual = 0.0171516, Final residual = 0.000722421, No Iterations 2
diagonal:  Solving for rho, Initial residual = 0, Final residual = 0, No Iterations 0
time step continuity errors : sum local = 3.27886e-07, global = 1.20922e-07, cumulative = -1.82909e-05
GAMG:  Solving for p_rgh, Initial residual = 0.000792202, Final residual = 4.75065e-07, No Iterations 6
diagonal:  Solving for rho, Initial residual = 0, Final residual = 0, No Iterations 0
time step continuity errors : sum local = 2.32084e-10, global = 6.19668e-11, cumulative = -1.82909e-05
DILUPBiCGStab:  Solving for k, Initial residual = 0.00591047, Final residual = 3.54743e-08, No Iterations 1
ExecutionTime = 28.08 s  ClockTime = 28 s

Courant Number mean: 0.00455723 max: 0.591175
deltaT = 0.00134157
Time = 0.0678024

diagonal:  Solving for rho, Initial residual = 0, Final residual = 0, No Iterations 0
DILUPBiCGStab:  Solving for Ux, Initial residual = 0.0168501, Final residual = 2.1522e-08, No Iterations 1
DILUPBiCGStab:  Solving for Uy, Initial residual = 0.0134627, Final residual = 3.38562e-08, No Iterations 1
DILUPBiCGStab:  Solving for Uz, Initial residual = 0.0143322, Final residual = 1.01111e-08, No Iterations 1
DILUPBiCGStab:  Solving for O2, Initial residual = 0.001774, Final residual = 2.15821e-09, No Iterations 1
DILUPBiCGStab:  Solving for H2O, Initial residual = 0.00183678, Final residual = 2.27205e-09, No Iterations 1
DILUPBiCGStab:  Solving for CH4, Initial residual = 0.00335411, Final residual = 1.11274e-08, No Iterations 1
DILUPBiCGStab:  Solving for CO2, Initial residual = 0.00183678, Final residual = 2.27205e-09, No Iterations 1
DILUPBiCGStab:  Solving for h, Initial residual = 0.00188616, Final residual = 2.24225e-09, No Iterations 1
min/max(T) = 299.993, 1857.14
GAMG:  Solving for p_rgh, Initial residual = 0.0160953, Final residual = 0.000616427, No Iterations 2
diagonal:  Solving for rho, Initial residual = 0, Final residual = 0, No Iterations 0
time step continuity errors : sum local = 3.06787e-07, global = 1.30678e-07, cumulative = -1.81602e-05
GAMG:  Solving for p_rgh, Initial residual = 0.000645457, Final residual = 3.9e-07, No Iterations 6
diagonal:  Solving for rho, Initial residual = 0, Final residual = 0, No Iterations 0
time step continuity errors : sum local = 2.23033e-10, global = 6.6571e-11, cumulative = -1.81601e-05
DILUPBiCGStab:  Solving for k, Initial residual = 0.00564843, Final residual = 3.21396e-08, No Iterations 1
ExecutionTime = 28.82 s  ClockTime = 29 s

Courant Number mean: 0.00452492 max: 0.58914
deltaT = 0.00134157
Time = 0.0691439

diagonal:  Solving for rho, Initial residual = 0, Final residual = 0, No Iterations 0
DILUPBiCGStab:  Solving for Ux, Initial residual = 0.0108749, Final residual = 2.05359e-08, No Iterations 1
DILUPBiCGStab:  Solving for Uy, Initial residual = 0.0085658, Final residual = 2.3317e-08, No Iterations 1
DILUPBiCGStab:  Solving for Uz, Initial residual = 0.00840422, Final residual = 8.53948e-09, No Iterations 1
DILUPBiCGStab:  Solving for O2, Initial residual = 0.00174515, Final residual = 2.06962e-09, No Iterations 1
DILUPBiCGStab:  Solving for H2O, Initial residual = 0.00182507, Final residual = 2.19905e-09, No Iterations 1
DILUPBiCGStab:  Solving for CH4, Initial residual = 0.00321745, Final residual = 1.09053e-08, No Iterations 1
DILUPBiCGStab:  Solving for CO2, Initial residual = 0.00182507, Final residual = 2.19905e-09, No Iterations 1
DILUPBiCGStab:  Solving for h, Initial residual = 0.00186209, Final residual = 2.13451e-09, No Iterations 1
min/max(T) = 299.993, 1870.29
GAMG:  Solving for p_rgh, Initial residual = 0.0124837, Final residual = 0.000494356, No Iterations 2
diagonal:  Solving for rho, Initial residual = 0, Final residual = 0, No Iterations 0
time step continuity errors : sum local = 2.88306e-07, global = 1.22006e-07, cumulative = -1.80381e-05
GAMG:  Solving for p_rgh, Initial residual = 0.000528491, Final residual = 9.86347e-07, No Iterations 5
diagonal:  Solving for rho, Initial residual = 0, Final residual = 0, No Iterations 0
time step continuity errors : sum local = 6.4289e-10, global = 2.11521e-10, cumulative = -1.80379e-05
DILUPBiCGStab:  Solving for k, Initial residual = 0.00540008, Final residual = 3.01525e-08, No Iterations 1
ExecutionTime = 29.55 s  ClockTime = 30 s

Courant Number mean: 0.00452399 max: 0.586204
deltaT = 0.00134157
Time = 0.0704855

diagonal:  Solving for rho, Initial residual = 0, Final residual = 0, No Iterations 0
DILUPBiCGStab:  Solving for Ux, Initial residual = 0.00578241, Final residual = 1.80275e-08, No Iterations 1
DILUPBiCGStab:  Solving for Uy, Initial residual = 0.00547609, Final residual = 1.65818e-08, No Iterations 1
DILUPBiCGStab:  Solving for Uz, Initial residual = 0.00389123, Final residual = 6.41004e-09, No Iterations 1
DILUPBiCGStab:  Solving for O2, Initial residual = 0.00173582, Final residual = 1.94079e-09, No Iterations 1
DILUPBiCGStab:  Solving for H2O, Initial residual = 0.00182934, Final residual = 2.07053e-09, No Iterations 1
DILUPBiCGStab:  Solving for CH4, Initial residual = 0.00310204, Final residual = 1.05746e-08, No Iterations 1
DILUPBiCGStab:  Solving for CO2, Initial residual = 0.00182934, Final residual = 2.07053e-09, No Iterations 1
DILUPBiCGStab:  Solving for h, Initial residual = 0.00185486, Final residual = 1.97785e-09, No Iterations 1
min/max(T) = 299.993, 1882.87
GAMG:  Solving for p_rgh, Initial residual = 0.0108041, Final residual = 0.00035112, No Iterations 2
diagonal:  Solving for rho, Initial residual = 0, Final residual = 0, No Iterations 0
time step continuity errors : sum local = 2.3231e-07, global = 9.88923e-08, cumulative = -1.7939e-05
GAMG:  Solving for p_rgh, Initial residual = 0.000404371, Final residual = 7.16022e-07, No Iterations 5
diagonal:  Solving for rho, Initial residual = 0, Final residual = 0, No Iterations 0
time step continuity errors : sum local = 5.10555e-10, global = 1.6338e-10, cumulative = -1.79388e-05
DILUPBiCGStab:  Solving for k, Initial residual = 0.00511858, Final residual = 2.67706e-08, No Iterations 1
ExecutionTime = 30.29 s  ClockTime = 31 s

Courant Number mean: 0.00454661 max: 0.589101
deltaT = 0.00134157
Time = 0.0718271

diagonal:  Solving for rho, Initial residual = 0, Final residual = 0, No Iterations 0
DILUPBiCGStab:  Solving for Ux, Initial residual = 0.00529922, Final residual = 1.6312e-08, No Iterations 1
DILUPBiCGStab:  Solving for Uy, Initial residual = 0.00667241, Final residual = 1.57902e-08, No Iterations 1
DILUPBiCGStab:  Solving for Uz, Initial residual = 0.00411956, Final residual = 5.95044e-09, No Iterations 1
DILUPBiCGStab:  Solving for O2, Initial residual = 0.00172164, Final residual = 1.92272e-09, No Iterations 1
DILUPBiCGStab:  Solving for H2O, Initial residual = 0.00182599, Final residual = 2.06179e-09, No Iterations 1
DILUPBiCGStab:  Solving for CH4, Initial residual = 0.00299002, Final residual = 1.01297e-08, No Iterations 1
DILUPBiCGStab:  Solving for CO2, Initial residual = 0.00182599, Final residual = 2.06179e-09, No Iterations 1
DILUPBiCGStab:  Solving for h, Initial residual = 0.0018404, Final residual = 1.92565e-09, No Iterations 1
min/max(T) = 299.993, 1895.09
GAMG:  Solving for p_rgh, Initial residual = 0.00931364, Final residual = 0.000924684, No Iterations 1
diagonal:  Solving for rho, Initial residual = 0, Final residual = 0, No Iterations 0
time step continuity errors : sum local = 6.67248e-07, global = 5.63256e-07, cumulative = -1.73756e-05
GAMG:  Solving for p_rgh, Initial residual = 0.000935623, Final residual = 6.18566e-07, No Iterations 6
diagonal:  Solving for rho, Initial residual = 0, Final residual = 0, No Iterations 0
time step continuity errors : sum local = 4.56515e-10, global = 1.42718e-10, cumulative = -1.73754e-05
DILUPBiCGStab:  Solving for k, Initial residual = 0.00498062, Final residual = 2.83975e-08, No Iterations 1
ExecutionTime = 31.01 s  ClockTime = 31 s

Courant Number mean: 0.0045875 max: 0.586631
deltaT = 0.00134157
Time = 0.0731686

[...]
GAMG:  Solving for ILambda_12_0, Initial residual = 0.0851172, Final residual = 2.73908e-08, No Iterations 1
GAMG:  Solving for ILambda_13_0, Initial residual = 0.0747757, Final residual = 1.02316e-08, No Iterations 1
GAMG:  Solving for ILambda_14_0, Initial residual = 0.0714496, Final residual = 0.0189649, No Iterations 1
GAMG:  Solving for ILambda_15_0, Initial residual = 0.0609257, Final residual = 0.014922, No Iterations 1
DILUPBiCGStab:  Solving for O2, Initial residual = 0.00194433, Final residual = 4.2755e-09, No Iterations 1
DILUPBiCGStab:  Solving for H2O, Initial residual = 0.00210822, Final residual = 4.89284e-09, No Iterations 1
DILUPBiCGStab:  Solving for CH4, Initial residual = 0.000750143, Final residual = 7.99273e-09, No Iterations 1
DILUPBiCGStab:  Solving for CO2, Initial residual = 0.00210822, Final residual = 4.89284e-09, No Iterations 1
DILUPBiCGStab:  Solving for h, Initial residual = 0.00209078, Final residual = 6.20535e-09, No Iterations 1
min/max(T) = 299.998, 1861.46
GAMG:  Solving for p_rgh, Initial residual = 0.0186777, Final residual = 0.00107916, No Iterations 2
diagonal:  Solving for rho, Initial residual = 0, Final residual = 0, No Iterations 0
time step continuity errors : sum local = 1.76837e-06, global = 7.65856e-07, cumulative = -3.00959e-06
GAMG:  Solving for p_rgh, Initial residual = 0.0010542, Final residual = 7.26667e-07, No Iterations 6
diagonal:  Solving for rho, Initial residual = 0, Final residual = 0, No Iterations 0
time step continuity errors : sum local = 1.59796e-09, global = 4.61571e-10, cumulative = -3.00913e-06
DILUPBiCGStab:  Solving for k, Initial residual = 0.00243245, Final residual = 8.12345e-09, No Iterations 1
ExecutionTime = 175.6 s  ClockTime = 176 s

Courant Number mean: 0.0148804 max: 0.51431
deltaT = 0.00142045
Time = 0.288636

diagonal:  Solving for rho, Initial residual = 0, Final residual = 0, No Iterations 0
DILUPBiCGStab:  Solving for Ux, Initial residual = 0.0203452, Final residual = 3.86124e-08, No Iterations 1
DILUPBiCGStab:  Solving for Uy, Initial residual = 0.0166779, Final residual = 6.84126e-08, No Iterations 1
DILUPBiCGStab:  Solving for Uz, Initial residual = 0.0206666, Final residual = 2.70088e-08, No Iterations 1
DILUPBiCGStab:  Solving for O2, Initial residual = 0.00219998, Final residual = 5.37131e-09, No Iterations 1
DILUPBiCGStab:  Solving for H2O, Initial residual = 0.00237029, Final residual = 6.04482e-09, No Iterations 1
DILUPBiCGStab:  Solving for CH4, Initial residual = 0.000819986, Final residual = 1.23085e-08, No Iterations 1
DILUPBiCGStab:  Solving for CO2, Initial residual = 0.00237029, Final residual = 6.04482e-09, No Iterations 1
DILUPBiCGStab:  Solving for h, Initial residual = 0.0022781, Final residual = 6.22005e-09, No Iterations 1
min/max(T) = 299.998, 1864.75
GAMG:  Solving for p_rgh, Initial residual = 0.0206772, Final residual = 0.000952883, No Iterations 2
diagonal:  Solving for rho, Initial residual = 0, Final residual = 0, No Iterations 0
time step continuity errors : sum local = 2.62147e-06, global = -1.5689e-07, cumulative = -3.16602e-06
GAMG:  Solving for p_rgh, Initial residual = 0.00153035, Final residual = 4.09416e-07, No Iterations 6
diagonal:  Solving for rho, Initial residual = 0, Final residual = 0, No Iterations 0
time step continuity errors : sum local = 1.08732e-09, global = 1.8275e-11, cumulative = -3.166e-06
DILUPBiCGStab:  Solving for k, Initial residual = 0.0026005, Final residual = 1.16092e-08, No Iterations 1
ExecutionTime = 177 s  ClockTime = 177 s

Courant Number mean: 0.0168569 max: 0.56393
deltaT = 0.00142045
Time = 0.290057

diagonal:  Solving for rho, Initial residual = 0, Final residual = 0, No Iterations 0
DILUPBiCGStab:  Solving for Ux, Initial residual = 0.0187143, Final residual = 3.48419e-08, No Iterations 1
DILUPBiCGStab:  Solving for Uy, Initial residual = 0.0125543, Final residual = 3.06008e-08, No Iterations 1
DILUPBiCGStab:  Solving for Uz, Initial residual = 0.0168521, Final residual = 1.85208e-08, No Iterations 1
DILUPBiCGStab:  Solving for O2, Initial residual = 0.00216291, Final residual = 4.88394e-09, No Iterations 1
DILUPBiCGStab:  Solving for H2O, Initial residual = 0.00233113, Final residual = 5.52712e-09, No Iterations 1
DILUPBiCGStab:  Solving for CH4, Initial residual = 0.000771142, Final residual = 1.11333e-08, No Iterations 1
DILUPBiCGStab:  Solving for CO2, Initial residual = 0.00233113, Final residual = 5.52712e-09, No Iterations 1
DILUPBiCGStab:  Solving for h, Initial residual = 0.0022298, Final residual = 5.55374e-09, No Iterations 1
min/max(T) = 299.999, 1867.42
GAMG:  Solving for p_rgh, Initial residual = 0.0140567, Final residual = 0.000574725, No Iterations 2
diagonal:  Solving for rho, Initial residual = 0, Final residual = 0, No Iterations 0
time step continuity errors : sum local = 1.52465e-06, global = -7.14489e-07, cumulative = -3.88049e-06
GAMG:  Solving for p_rgh, Initial residual = 0.00108189, Final residual = 8.17634e-07, No Iterations 6
diagonal:  Solving for rho, Initial residual = 0, Final residual = 0, No Iterations 0
time step continuity errors : sum local = 1.71372e-09, global = -5.42634e-10, cumulative = -3.88103e-06
DILUPBiCGStab:  Solving for k, Initial residual = 0.00256646, Final residual = 1.10864e-08, No Iterations 1
ExecutionTime = 178.5 s  ClockTime = 179 s

Courant Number mean: 0.0169863 max: 0.561429
deltaT = 0.00142045
Time = 0.291477

diagonal:  Solving for rho, Initial residual = 0, Final residual = 0, No Iterations 0
DILUPBiCGStab:  Solving for Ux, Initial residual = 0.00728211, Final residual = 1.81138e-08, No Iterations 1
DILUPBiCGStab:  Solving for Uy, Initial residual = 0.00647536, Final residual = 1.46108e-08, No Iterations 1
DILUPBiCGStab:  Solving for Uz, Initial residual = 0.00711338, Final residual = 5.19549e-09, No Iterations 1
DILUPBiCGStab:  Solving for O2, Initial residual = 0.00213647, Final residual = 4.88672e-09, No Iterations 1
DILUPBiCGStab:  Solving for H2O, Initial residual = 0.0023024, Final residual = 5.50805e-09, No Iterations 1
DILUPBiCGStab:  Solving for CH4, Initial residual = 0.00075462, Final residual = 1.09386e-08, No Iterations 1
DILUPBiCGStab:  Solving for CO2, Initial residual = 0.0023024, Final residual = 5.50805e-09, No Iterations 1
DILUPBiCGStab:  Solving for h, Initial residual = 0.00219533, Final residual = 5.47465e-09, No Iterations 1
min/max(T) = 299.998, 1868.6
GAMG:  Solving for p_rgh, Initial residual = 0.01553, Final residual = 0.000530199, No Iterations 2
diagonal:  Solving for rho, Initial residual = 0, Final residual = 0, No Iterations 0
time step continuity errors : sum local = 1.09272e-06, global = -5.50885e-07, cumulative = -4.43192e-06
GAMG:  Solving for p_rgh, Initial residual = 0.00106218, Final residual = 7.15585e-07, No Iterations 6
diagonal:  Solving for rho, Initial residual = 0, Final residual = 0, No Iterations 0
time step continuity errors : sum local = 1.21664e-09, global = -3.30123e-10, cumulative = -4.43225e-06
DILUPBiCGStab:  Solving for k, Initial residual = 0.00257365, Final residual = 1.12612e-08, No Iterations 1
ExecutionTime = 179.75 s  ClockTime = 180 s

Courant Number mean: 0.016997 max: 0.558504
deltaT = 0.00142045
Time = 0.292898

diagonal:  Solving for rho, Initial residual = 0, Final residual = 0, No Iterations 0
DILUPBiCGStab:  Solving for Ux, Initial residual = 0.00623461, Final residual = 2.61421e-08, No Iterations 1
DILUPBiCGStab:  Solving for Uy, Initial residual = 0.00416981, Final residual = 1.00116e-08, No Iterations 1
DILUPBiCGStab:  Solving for Uz, Initial residual = 0.00549769, Final residual = 4.69513e-09, No Iterations 1
DILUPBiCGStab:  Solving for O2, Initial residual = 0.00213405, Final residual = 5.02652e-09, No Iterations 1
DILUPBiCGStab:  Solving for H2O, Initial residual = 0.00229939, Final residual = 5.63816e-09, No Iterations 1
DILUPBiCGStab:  Solving for CH4, Initial residual = 0.000756156, Final residual = 1.0326e-08, No Iterations 1
DILUPBiCGStab:  Solving for CO2, Initial residual = 0.00229939, Final residual = 5.63816e-09, No Iterations 1
DILUPBiCGStab:  Solving for h, Initial residual = 0.00218454, Final residual = 5.5943e-09, No Iterations 1
min/max(T) = 299.999, 1868.67
GAMG:  Solving for p_rgh, Initial residual = 0.0168615, Final residual = 0.000330769, No Iterations 2
diagonal:  Solving for rho, Initial residual = 0, Final residual = 0, No Iterations 0
time step continuity errors : sum local = 5.55829e-07, global = -7.93552e-08, cumulative = -4.5116e-06
GAMG:  Solving for p_rgh, Initial residual = 0.000829647, Final residual = 7.27888e-07, No Iterations 5
diagonal:  Solving for rho, Initial residual = 0, Final residual = 0, No Iterations 0
time step continuity errors : sum local = 1.21627e-09, global = -8.1879e-11, cumulative = -4.51169e-06
DILUPBiCGStab:  Solving for k, Initial residual = 0.00256935, Final residual = 1.11904e-08, No Iterations 1
ExecutionTime = 180.87 s  ClockTime = 181 s

Courant Number mean: 0.0169986 max: 0.555302
deltaT = 0.00142045
Time = 0.294318

diagonal:  Solving for rho, Initial residual = 0, Final residual = 0, No Iterations 0
DILUPBiCGStab:  Solving for Ux, Initial residual = 0.00641577, Final residual = 1.66422e-08, No Iterations 1
DILUPBiCGStab:  Solving for Uy, Initial residual = 0.00407859, Final residual = 9.19964e-09, No Iterations 1
DILUPBiCGStab:  Solving for Uz, Initial residual = 0.00590845, Final residual = 6.10094e-09, No Iterations 1
DILUPBiCGStab:  Solving for O2, Initial residual = 0.00212519, Final residual = 5.20843e-09, No Iterations 1
DILUPBiCGStab:  Solving for H2O, Initial residual = 0.00228919, Final residual = 5.842e-09, No Iterations 1
DILUPBiCGStab:  Solving for CH4, Initial residual = 0.00075408, Final residual = 1.05008e-08, No Iterations 1
DILUPBiCGStab:  Solving for CO2, Initial residual = 0.00228919, Final residual = 5.842e-09, No Iterations 1
DILUPBiCGStab:  Solving for h, Initial residual = 0.00217066, Final residual = 5.77964e-09, No Iterations 1
min/max(T) = 299.999, 1865.19
GAMG:  Solving for p_rgh, Initial residual = 0.0166649, Final residual = 0.000426096, No Iterations 2
diagonal:  Solving for rho, Initial residual = 0, Final residual = 0, No Iterations 0
time step continuity errors : sum local = 7.14831e-07, global = 3.45651e-07, cumulative = -4.16603e-06
GAMG:  Solving for p_rgh, Initial residual = 0.000855178, Final residual = 4.24522e-07, No Iterations 6
diagonal:  Solving for rho, Initial residual = 0, Final residual = 0, No Iterations 0
time step continuity errors : sum local = 7.54451e-10, global = 2.59432e-10, cumulative = -4.16578e-06
DILUPBiCGStab:  Solving for k, Initial residual = 0.00257528, Final residual = 1.13106e-08, No Iterations 1
ExecutionTime = 181.91 s  ClockTime = 182 s

Courant Number mean: 0.0170437 max: 0.554364
deltaT = 0.00142045
Time = 0.295739

diagonal:  Solving for rho, Initial residual = 0, Final residual = 0, No Iterations 0
DILUPBiCGStab:  Solving for Ux, Initial residual = 0.00475959, Final residual = 2.06141e-08, No Iterations 1
DILUPBiCGStab:  Solving for Uy, Initial residual = 0.00412244, Final residual = 9.70265e-09, No Iterations 1
DILUPBiCGStab:  Solving for Uz, Initial residual = 0.00481133, Final residual = 4.69163e-09, No Iterations 1
DILUPBiCGStab:  Solving for O2, Initial residual = 0.00212505, Final residual = 5.38213e-09, No Iterations 1
DILUPBiCGStab:  Solving for H2O, Initial residual = 0.00228723, Final residual = 6.02983e-09, No Iterations 1
DILUPBiCGStab:  Solving for CH4, Initial residual = 0.000771009, Final residual = 1.0659e-08, No Iterations 1
DILUPBiCGStab:  Solving for CO2, Initial residual = 0.00228723, Final residual = 6.02983e-09, No Iterations 1
DILUPBiCGStab:  Solving for h, Initial residual = 0.00216547, Final residual = 5.97683e-09, No Iterations 1
min/max(T) = 299.999, 1860.52
GAMG:  Solving for p_rgh, Initial residual = 0.0152508, Final residual = 0.000290921, No Iterations 2
diagonal:  Solving for rho, Initial residual = 0, Final residual = 0, No Iterations 0
time step continuity errors : sum local = 5.24267e-07, global = 2.50028e-07, cumulative = -3.91575e-06
GAMG:  Solving for p_rgh, Initial residual = 0.000736739, Final residual = 7.63595e-07, No Iterations 5
diagonal:  Solving for rho, Initial residual = 0, Final residual = 0, No Iterations 0
time step continuity errors : sum local = 1.3936e-09, global = 5.39105e-10, cumulative = -3.91521e-06
DILUPBiCGStab:  Solving for k, Initial residual = 0.00258241, Final residual = 1.14456e-08, No Iterations 1
ExecutionTime = 182.95 s  ClockTime = 183 s

Courant Number mean: 0.0171003 max: 0.553301
deltaT = 0.00142045
Time = 0.297159

diagonal:  Solving for rho, Initial residual = 0, Final residual = 0, No Iterations 0
DILUPBiCGStab:  Solving for Ux, Initial residual = 0.00474406, Final residual = 1.5473e-08, No Iterations 1
DILUPBiCGStab:  Solving for Uy, Initial residual = 0.0042476, Final residual = 1.06806e-08, No Iterations 1
DILUPBiCGStab:  Solving for Uz, Initial residual = 0.00487921, Final residual = 5.87643e-09, No Iterations 1
DILUPBiCGStab:  Solving for O2, Initial residual = 0.00212564, Final residual = 5.58052e-09, No Iterations 1
DILUPBiCGStab:  Solving for H2O, Initial residual = 0.0022853, Final residual = 6.22722e-09, No Iterations 1
DILUPBiCGStab:  Solving for CH4, Initial residual = 0.000769272, Final residual = 1.06122e-08, No Iterations 1
DILUPBiCGStab:  Solving for CO2, Initial residual = 0.0022853, Final residual = 6.22722e-09, No Iterations 1
DILUPBiCGStab:  Solving for h, Initial residual = 0.00216274, Final residual = 6.15628e-09, No Iterations 1
min/max(T) = 299.999, 1854.73
GAMG:  Solving for p_rgh, Initial residual = 0.0147868, Final residual = 0.000293034, No Iterations 2
diagonal:  Solving for rho, Initial residual = 0, Final residual = 0, No Iterations 0
time step continuity errors : sum local = 5.40046e-07, global = 4.71638e-08, cumulative = -3.86804e-06
GAMG:  Solving for p_rgh, Initial residual = 0.000726884, Final residual = 7.3184e-07, No Iterations 5
diagonal:  Solving for rho, Initial residual = 0, Final residual = 0, No Iterations 0
time step continuity errors : sum local = 1.35681e-09, global = 2.09306e-10, cumulative = -3.86783e-06
DILUPBiCGStab:  Solving for k, Initial residual = 0.00259808, Final residual = 1.17145e-08, No Iterations 1
ExecutionTime = 183.89 s  ClockTime = 184 s

Courant Number mean: 0.0171622 max: 0.553568
deltaT = 0.00142045
Time = 0.29858

diagonal:  Solving for rho, Initial residual = 0, Final residual = 0, No Iterations 0
DILUPBiCGStab:  Solving for Ux, Initial residual = 0.00463105, Final residual = 2.31138e-08, No Iterations 1
DILUPBiCGStab:  Solving for Uy, Initial residual = 0.00416424, Final residual = 1.09103e-08, No Iterations 1
DILUPBiCGStab:  Solving for Uz, Initial residual = 0.00467888, Final residual = 5.03344e-09, No Iterations 1
DILUPBiCGStab:  Solving for O2, Initial residual = 0.00212939, Final residual = 5.97526e-09, No Iterations 1
DILUPBiCGStab:  Solving for H2O, Initial residual = 0.0022887, Final residual = 6.62955e-09, No Iterations 1
DILUPBiCGStab:  Solving for CH4, Initial residual = 0.000768699, Final residual = 1.06352e-08, No Iterations 1
DILUPBiCGStab:  Solving for CO2, Initial residual = 0.0022887, Final residual = 6.62955e-09, No Iterations 1
DILUPBiCGStab:  Solving for h, Initial residual = 0.00216508, Final residual = 6.53186e-09, No Iterations 1
min/max(T) = 299.999, 1842.11
GAMG:  Solving for p_rgh, Initial residual = 0.0152911, Final residual = 0.000273366, No Iterations 2
diagonal:  Solving for rho, Initial residual = 0, Final residual = 0, No Iterations 0
time step continuity errors : sum local = 5.08366e-07, global = 2.14679e-07, cumulative = -3.65316e-06
GAMG:  Solving for p_rgh, Initial residual = 0.00071767, Final residual = 9.97648e-07, No Iterations 5
diagonal:  Solving for rho, Initial residual = 0, Final residual = 0, No Iterations 0
time step continuity errors : sum local = 1.88332e-09, global = 6.65291e-10, cumulative = -3.65249e-06
DILUPBiCGStab:  Solving for k, Initial residual = 0.0026016, Final residual = 1.16498e-08, No Iterations 1
ExecutionTime = 184.81 s  ClockTime = 185 s

Courant Number mean: 0.0172339 max: 0.553186
deltaT = 0.00142045
Time = 0.3

diagonal:  Solving for rho, Initial residual = 0, Final residual = 0, No Iterations 0
DILUPBiCGStab:  Solving for Ux, Initial residual = 0.00472334, Final residual = 1.53166e-08, No Iterations 1
DILUPBiCGStab:  Solving for Uy, Initial residual = 0.00436857, Final residual = 1.0569e-08, No Iterations 1
DILUPBiCGStab:  Solving for Uz, Initial residual = 0.0048955, Final residual = 6.03293e-09, No Iterations 1
DILUPBiCGStab:  Solving for O2, Initial residual = 0.00212978, Final residual = 6.14236e-09, No Iterations 1
DILUPBiCGStab:  Solving for H2O, Initial residual = 0.00228936, Final residual = 6.78279e-09, No Iterations 1
DILUPBiCGStab:  Solving for CH4, Initial residual = 0.000767334, Final residual = 1.0079e-08, No Iterations 1
DILUPBiCGStab:  Solving for CO2, Initial residual = 0.00228936, Final residual = 6.78279e-09, No Iterations 1
DILUPBiCGStab:  Solving for h, Initial residual = 0.00216942, Final residual = 6.66441e-09, No Iterations 1
min/max(T) = 299.999, 1839.03
GAMG:  Solving for p_rgh, Initial residual = 0.0148185, Final residual = 0.00142492, No Iterations 1
diagonal:  Solving for rho, Initial residual = 0, Final residual = 0, No Iterations 0
time step continuity errors : sum local = 2.71169e-06, global = 9.96769e-07, cumulative = -2.65572e-06
GAMG:  Solving for p_rgh, Initial residual = 0.00146064, Final residual = 3.83135e-07, No Iterations 7
diagonal:  Solving for rho, Initial residual = 0, Final residual = 0, No Iterations 0
time step continuity errors : sum local = 7.38365e-10, global = 2.48929e-10, cumulative = -2.65547e-06
DILUPBiCGStab:  Solving for k, Initial residual = 0.00260652, Final residual = 1.16839e-08, No Iterations 1
ExecutionTime = 185.84 s  ClockTime = 186 s

Courant Number mean: 0.0173315 max: 0.553914
deltaT = 0.00166667
Time = 0.301667

diagonal:  Solving for rho, Initial residual = 0, Final residual = 0, No Iterations 0
DILUPBiCGStab:  Solving for Ux, Initial residual = 0.00579504, Final residual = 4.15108e-08, No Iterations 1
DILUPBiCGStab:  Solving for Uy, Initial residual = 0.00568803, Final residual = 2.33702e-08, No Iterations 1
DILUPBiCGStab:  Solving for Uz, Initial residual = 0.00596082, Final residual = 1.17037e-08, No Iterations 1
Radiation solver iter: 0
GAMG:  Solving for ILambda_0_0, Initial residual = 0.0491197, Final residual = 0.00068757, No Iterations 1
GAMG:  Solving for ILambda_1_0, Initial residual = 0.0564541, Final residual = 7.22108e-05, No Iterations 1
GAMG:  Solving for ILambda_2_0, Initial residual = 0.0786143, Final residual = 0.0157498, No Iterations 1
GAMG:  Solving for ILambda_3_0, Initial residual = 0.0839428, Final residual = 0.00976336, No Iterations 1
GAMG:  Solving for ILambda_4_0, Initial residual = 0.0848105, Final residual = 0.010655, No Iterations 1
GAMG:  Solving for ILambda_5_0, Initial residual = 0.0795259, Final residual = 0.0188484, No Iterations 1
GAMG:  Solving for ILambda_6_0, Initial residual = 0.064929, Final residual = 0.0156676, No Iterations 1
GAMG:  Solving for ILambda_7_0, Initial residual = 0.0560751, Final residual = 0.00948789, No Iterations 1
GAMG:  Solving for ILambda_8_0, Initial residual = 0.0633506, Final residual = 0.0192563, No Iterations 1
GAMG:  Solving for ILambda_9_0, Initial residual = 0.0689597, Final residual = 0.0208494, No Iterations 1
GAMG:  Solving for ILambda_10_0, Initial residual = 0.0754349, Final residual = 0.0156112, No Iterations 1
GAMG:  Solving for ILambda_11_0, Initial residual = 0.0816606, Final residual = 0.00501977, No Iterations 1
GAMG:  Solving for ILambda_12_0, Initial residual = 0.0795127, Final residual = 2.46099e-08, No Iterations 1
GAMG:  Solving for ILambda_13_0, Initial residual = 0.0700046, Final residual = 8.96487e-09, No Iterations 1
